[TITLE]
;;Project Title/Notes

[OPTIONS]
;;Option             Value
FLOW_UNITS           LPS
INFILTRATION         HORTON
FLOW_ROUTING         DYNWAVE
LINK_OFFSETS         DEPTH
MIN_SLOPE            0
ALLOW_PONDING        NO
SKIP_STEADY_STATE    NO

START_DATE           05/18/2022
START_TIME           00:00:00
REPORT_START_DATE    05/18/2022
REPORT_START_TIME    00:00:00
END_DATE             05/18/2022
END_TIME             23:59:00
SWEEP_START          01/01
SWEEP_END            12/31
DRY_DAYS             0
REPORT_STEP          00:00:01
WET_STEP             00:01:00
DRY_STEP             00:01:00
ROUTING_STEP         0:00:01 
RULE_STEP            00:00:00

INERTIAL_DAMPING     NONE
NORMAL_FLOW_LIMITED  BOTH
FORCE_MAIN_EQUATION  H-W
VARIABLE_STEP        0.75
LENGTHENING_STEP     0
MIN_SURFAREA         0.00000001
MAX_TRIALS           20
HEAD_TOLERANCE       0.000005
SYS_FLOW_TOL         5
LAT_FLOW_TOL         5
MINIMUM_STEP         0.1
THREADS              4

[EVAPORATION]
;;Data Source    Parameters
;;-------------- ----------------
CONSTANT         0.0
DRY_ONLY         NO

[JUNCTIONS]
;;Name           Elevation  MaxDepth   InitDepth  SurDepth   Aponded   
;;-------------- ---------- ---------- ---------- ---------- ----------
DN1              90.0000    0          0          100        0         
DN2              88.0000    0          0          100        0         
DN3              90.0000    0          0          100        0         
DN4              85.0000    0          0          100        0         
1-1-DN1          90.9000    0          0          100        0         
1-2-DN1          90.8000    0          0          100        0         
1-3-DN1          90.7000    0          0          100        0         
1-4-DN1          90.6000    0          0          100        0         
1-5-DN1          90.5000    0          0          100        0         
1-6-DN1          90.4000    0          0          100        0         
1-7-DN1          90.3000    0          0          100        0         
1-8-DN1          90.2000    0          0          100        0         
1-9-DN1          90.1000    0          0          100        0         
DN1-1-DN2        89.8225    0          0          100        0         
DN1-2-DN2        89.6200    0          0          100        0         
DN1-3-DN2        89.4175    0          0          100        0         
DN1-4-DN2        89.2150    0          0          100        0         
DN1-5-DN2        89.0125    0          0          100        0         
DN1-6-DN2        88.8100    0          0          100        0         
DN1-7-DN2        88.6075    0          0          100        0         
DN1-8-DN2        88.4050    0          0          100        0         
DN1-9-DN2        88.2025    0          0          100        0         
DN2-1-DN3        88.2225    0          0          100        0         
DN2-2-DN3        88.4200    0          0          100        0         
DN2-3-DN3        88.6175    0          0          100        0         
DN2-4-DN3        88.8150    0          0          100        0         
DN2-5-DN3        89.0125    0          0          100        0         
DN2-6-DN3        89.2100    0          0          100        0         
DN2-7-DN3        89.4075    0          0          100        0         
DN2-8-DN3        89.6050    0          0          100        0         
DN2-9-DN3        89.8025    0          0          100        0         
DN3-1-DN4        89.5000    0          0          100        0         
DN3-2-DN4        89.0000    0          0          100        0         
DN3-3-DN4        88.5000    0          0          100        0         
DN3-4-DN4        88.0000    0          0          100        0         
DN3-5-DN4        87.5000    0          0          100        0         
DN3-6-DN4        87.0000    0          0          100        0         
DN3-7-DN4        86.5000    0          0          100        0         
DN3-8-DN4        86.0000    0          0          100        0         
DN3-9-DN4        85.5000    0          0          100        0         

[OUTFALLS]
;;Name           Elevation  Type       Stage Data       Gated    Route To        
;;-------------- ---------- ---------- ---------------- -------- ----------------
OutfallDN1       90.0       FREE                        NO                       
OutfallDN2       88.0       FREE                        NO                       
OutfallDN3       90.0       FREE                        NO                       
OutfallDN4       85.0       FREE                        NO                       
L_OutfallDN1     90.0       FREE                        NO                       
L_OutfallDN2     88.0       FREE                        NO                       
L_OutfallDN3     90.0       FREE                        NO                       
L_OutfallDN4     85.0       FREE                        NO                       

[STORAGE]
;;Name           Elev.    MaxDepth   InitDepth  Shape      Curve Type/Params            SurDepth  Fevap    Psi      Ksat     IMD     
;;-------------- -------- ---------- ----------- ---------- ---------------------------- --------- --------          -------- --------
Reservoir-1      92.0     110.0      8.0        TABULAR    Source1                      0         0       
StorageforNodeDN1 90.0     1.0        0.0        FUNCTIONAL 0          0          1920.00001 0         0       
StorageforNodeDN2 88.0     1.0        0.0        FUNCTIONAL 0          0          1920.00001 0         0       
StorageforNodeDN3 90.0     1.0        0.0        FUNCTIONAL 0          0          2880.0   0         0       
StorageforNodeDN4 85.0     1.0        0.0        FUNCTIONAL 0          0          959.99999 0         0       

[CONDUITS]
;;Name           From Node        To Node          Length     Roughness  InOffset   OutOffset  InitFlow   MaxFlow   
;;-------------- ---------------- ---------------- ---------- ---------- ---------- ---------- ---------- ----------
P1-1             Reservoir-1      1-1-DN1          100.0      0.011      0.000      0.0        0          0         
P1-2             1-1-DN1          1-2-DN1          100.0      0.011      0.000      0.0        0          0         
P1-3             1-2-DN1          1-3-DN1          100.0      0.011      0.000      0.0        0          0         
P1-4             1-3-DN1          1-4-DN1          100.0      0.011      0.000      0.0        0          0         
P1-5             1-4-DN1          1-5-DN1          100.0      0.011      0.000      0.0        0          0         
P1-6             1-5-DN1          1-6-DN1          100.0      0.011      0.000      0.0        0          0         
P1-7             1-6-DN1          1-7-DN1          100.0      0.011      0.000      0.0        0          0         
P1-8             1-7-DN1          1-8-DN1          100.0      0.011      0.000      0.0        0          0         
P1-9             1-8-DN1          1-9-DN1          100.0      0.011      0.000      0.0        0          0         
P1-10            1-9-DN1          DN1              100.0      0.011      0.000      0.0        0          0         
P2-1             DN1              DN1-1-DN2        100.0      0.011      0.025      0.0        0          0         
P2-2             DN1-1-DN2        DN1-2-DN2        100.0      0.011      0.000      0.0        0          0         
P2-3             DN1-2-DN2        DN1-3-DN2        100.0      0.011      0.000      0.0        0          0         
P2-4             DN1-3-DN2        DN1-4-DN2        100.0      0.011      0.000      0.0        0          0         
P2-5             DN1-4-DN2        DN1-5-DN2        100.0      0.011      0.000      0.0        0          0         
P2-6             DN1-5-DN2        DN1-6-DN2        100.0      0.011      0.000      0.0        0          0         
P2-7             DN1-6-DN2        DN1-7-DN2        100.0      0.011      0.000      0.0        0          0         
P2-8             DN1-7-DN2        DN1-8-DN2        100.0      0.011      0.000      0.0        0          0         
P2-9             DN1-8-DN2        DN1-9-DN2        100.0      0.011      0.000      0.0        0          0         
P2-10            DN1-9-DN2        DN2              100.0      0.011      0.000      0.0        0          0         
P3-1             DN2              DN2-1-DN3        100.0      0.011      0.025      0.0        0          0         
P3-2             DN2-1-DN3        DN2-2-DN3        100.0      0.011      0.000      0.0        0          0         
P3-3             DN2-2-DN3        DN2-3-DN3        100.0      0.011      0.000      0.0        0          0         
P3-4             DN2-3-DN3        DN2-4-DN3        100.0      0.011      0.000      0.0        0          0         
P3-5             DN2-4-DN3        DN2-5-DN3        100.0      0.011      0.000      0.0        0          0         
P3-6             DN2-5-DN3        DN2-6-DN3        100.0      0.011      0.000      0.0        0          0         
P3-7             DN2-6-DN3        DN2-7-DN3        100.0      0.011      0.000      0.0        0          0         
P3-8             DN2-7-DN3        DN2-8-DN3        100.0      0.011      0.000      0.0        0          0         
P3-9             DN2-8-DN3        DN2-9-DN3        100.0      0.011      0.000      0.0        0          0         
P3-10            DN2-9-DN3        DN3              100.0      0.011      0.000      0.0        0          0         
P4-1             DN3              DN3-1-DN4        100.0      0.011      0.000      0.0        0          0         
P4-2             DN3-1-DN4        DN3-2-DN4        100.0      0.011      0.000      0.0        0          0         
P4-3             DN3-2-DN4        DN3-3-DN4        100.0      0.011      0.000      0.0        0          0         
P4-4             DN3-3-DN4        DN3-4-DN4        100.0      0.011      0.000      0.0        0          0         
P4-5             DN3-4-DN4        DN3-5-DN4        100.0      0.011      0.000      0.0        0          0         
P4-6             DN3-5-DN4        DN3-6-DN4        100.0      0.011      0.000      0.0        0          0         
P4-7             DN3-6-DN4        DN3-7-DN4        100.0      0.011      0.000      0.0        0          0         
P4-8             DN3-7-DN4        DN3-8-DN4        100.0      0.011      0.000      0.0        0          0         
P4-9             DN3-8-DN4        DN3-9-DN4        100.0      0.011      0.000      0.0        0          0         
P4-10            DN3-9-DN4        DN4              100.0      0.011      0.000      0.0        0          0         

[OUTLETS]
;;Name           From Node        To Node          Offset     Type            QTable/Qcoeff    Qexpon     Gated   
;;-------------- ---------------- ---------------- ---------- --------------- ---------------- ---------- --------
OutletDN1        DN1              StorageforNodeDN1 0.200      FUNCTIONAL/DEPTH 21.081851        0.5        YES     
OutletDN2        DN2              StorageforNodeDN2 0.175      FUNCTIONAL/DEPTH 21.081851        0.5        YES     
OutletDN3        DN3              StorageforNodeDN3 0.150      FUNCTIONAL/DEPTH 31.622777        0.5        YES     
OutletDN4        DN4              StorageforNodeDN4 0.150      FUNCTIONAL/DEPTH 10.540925        0.5        YES     
DemandOutletDN1  StorageforNodeDN1 OutfallDN1       0.000      TABULAR/DEPTH   DemandDN1                   YES     
DemandOutletDN2  StorageforNodeDN2 OutfallDN2       0.000      TABULAR/DEPTH   DemandDN2                   YES     
DemandOutletDN3  StorageforNodeDN3 OutfallDN3       0.000      TABULAR/DEPTH   DemandDN3                   YES     
DemandOutletDN4  StorageforNodeDN4 OutfallDN4       0.000      TABULAR/DEPTH   DemandDN4                   YES     
LeakforNodeDN1   DN1              L_OutfallDN1     0.200      FUNCTIONAL/DEPTH 2.108185         0.5        YES     
LeakforNodeDN2   DN2              L_OutfallDN2     0.175      FUNCTIONAL/DEPTH 2.108185         0.5        YES     
LeakforNodeDN3   DN3              L_OutfallDN3     0.150      FUNCTIONAL/DEPTH 3.162278         0.5        YES     
LeakforNodeDN4   DN4              L_OutfallDN4     0.150      FUNCTIONAL/DEPTH 1.054093         0.5        YES     

[XSECTIONS]
;;Link           Shape        Geom1            Geom2      Geom3      Geom4      Barrels    Culvert   
;;-------------- ------------ ---------------- ---------- ---------- ---------- ---------- ----------
P1-1             FORCE_MAIN   0.40             130        0          0          1                    
P1-2             FORCE_MAIN   0.40             130        0          0          1                    
P1-3             FORCE_MAIN   0.40             130        0          0          1                    
P1-4             FORCE_MAIN   0.40             130        0          0          1                    
P1-5             FORCE_MAIN   0.40             130        0          0          1                    
P1-6             FORCE_MAIN   0.40             130        0          0          1                    
P1-7             FORCE_MAIN   0.40             130        0          0          1                    
P1-8             FORCE_MAIN   0.40             130        0          0          1                    
P1-9             FORCE_MAIN   0.40             130        0          0          1                    
P1-10            FORCE_MAIN   0.40             130        0          0          1                    
P2-1             FORCE_MAIN   0.35             130        0          0          1                    
P2-2             FORCE_MAIN   0.35             130        0          0          1                    
P2-3             FORCE_MAIN   0.35             130        0          0          1                    
P2-4             FORCE_MAIN   0.35             130        0          0          1                    
P2-5             FORCE_MAIN   0.35             130        0          0          1                    
P2-6             FORCE_MAIN   0.35             130        0          0          1                    
P2-7             FORCE_MAIN   0.35             130        0          0          1                    
P2-8             FORCE_MAIN   0.35             130        0          0          1                    
P2-9             FORCE_MAIN   0.35             130        0          0          1                    
P2-10            FORCE_MAIN   0.35             130        0          0          1                    
P3-1             FORCE_MAIN   0.30             130        0          0          1                    
P3-2             FORCE_MAIN   0.30             130        0          0          1                    
P3-3             FORCE_MAIN   0.30             130        0          0          1                    
P3-4             FORCE_MAIN   0.30             130        0          0          1                    
P3-5             FORCE_MAIN   0.30             130        0          0          1                    
P3-6             FORCE_MAIN   0.30             130        0          0          1                    
P3-7             FORCE_MAIN   0.30             130        0          0          1                    
P3-8             FORCE_MAIN   0.30             130        0          0          1                    
P3-9             FORCE_MAIN   0.30             130        0          0          1                    
P3-10            FORCE_MAIN   0.30             130        0          0          1                    
P4-1             FORCE_MAIN   0.30             130        0          0          1                    
P4-2             FORCE_MAIN   0.30             130        0          0          1                    
P4-3             FORCE_MAIN   0.30             130        0          0          1                    
P4-4             FORCE_MAIN   0.30             130        0          0          1                    
P4-5             FORCE_MAIN   0.30             130        0          0          1                    
P4-6             FORCE_MAIN   0.30             130        0          0          1                    
P4-7             FORCE_MAIN   0.30             130        0          0          1                    
P4-8             FORCE_MAIN   0.30             130        0          0          1                    
P4-9             FORCE_MAIN   0.30             130        0          0          1                    
P4-10            FORCE_MAIN   0.30             130        0          0          1                    

[CONTROLS]


Rule OutletDN1
IF NODE StorageforNodeDN1 DEPTH >= 0.9
THEN OUTLET OutletDN1 SETTING = CURVE ControlOutletDN1

Rule OutletDN2
IF NODE StorageforNodeDN2 DEPTH >= 0.9
THEN OUTLET OutletDN2 SETTING = CURVE ControlOutletDN2

Rule OutletDN3
IF NODE StorageforNodeDN3 DEPTH >= 0.9
THEN OUTLET OutletDN3 SETTING = CURVE ControlOutletDN3

Rule OutletDN4
IF NODE StorageforNodeDN4 DEPTH >= 0.9
THEN OUTLET OutletDN4 SETTING = CURVE ControlOutletDN4

Rule STOPSUPPLY
IF SIMULATION CLOCKTIME > 08:00
THEN CONDUIT P1-1 STATUS = CLOSED

Rule STARTSUPPLY
IF SIMULATION CLOCKTIME >= 0:00
AND SIMULATION CLOCKTIME < 08:00
THEN CONDUIT P1-1 STATUS = OPEN

Rule Patterns
IF SIMULATION TIME > 0
THEN OUTLET DemandOutletDN1 SETTING = TIMESERIES Pattern
AND OUTLET DemandOutletDN2 SETTING = TIMESERIES Pattern
AND OUTLET DemandOutletDN3 SETTING = TIMESERIES Pattern
AND OUTLET DemandOutletDN4 SETTING = TIMESERIES Pattern



[CURVES]
;;Name           Type       X-Value    Y-Value   
;;-------------- ---------- ---------- ----------
ControlOutletDN1 Control    0.9        0.985953  
ControlOutletDN1            0.902      0.984442  
ControlOutletDN1            0.904      0.982766  
ControlOutletDN1            0.906      0.980909  
ControlOutletDN1            0.908      0.97885   
ControlOutletDN1            0.91       0.976567  
ControlOutletDN1            0.912      0.974035  
ControlOutletDN1            0.914      0.971227  
ControlOutletDN1            0.916      0.968113  
ControlOutletDN1            0.918      0.964659  
ControlOutletDN1            0.92       0.960829  
ControlOutletDN1            0.922      0.956582  
ControlOutletDN1            0.924      0.951871  
ControlOutletDN1            0.926      0.946648  
ControlOutletDN1            0.928      0.940858  
ControlOutletDN1            0.93       0.934439  
ControlOutletDN1            0.932      0.927326  
ControlOutletDN1            0.934      0.919445  
ControlOutletDN1            0.936      0.910718  
ControlOutletDN1            0.938      0.901058  
ControlOutletDN1            0.94       0.890372  
ControlOutletDN1            0.942      0.878558  
ControlOutletDN1            0.944      0.865508  
ControlOutletDN1            0.946      0.851109  
ControlOutletDN1            0.948      0.835238  
ControlOutletDN1            0.95       0.817769  
ControlOutletDN1            0.952      0.798572  
ControlOutletDN1            0.954      0.777517  
ControlOutletDN1            0.956      0.754473  
ControlOutletDN1            0.958      0.729317  
ControlOutletDN1            0.96       0.701937  
ControlOutletDN1            0.962      0.672239  
ControlOutletDN1            0.964      0.640154  
ControlOutletDN1            0.966      0.605648  
ControlOutletDN1            0.968      0.568737  
ControlOutletDN1            0.97       0.529495  
ControlOutletDN1            0.972      0.488069  
ControlOutletDN1            0.974      0.444695  
ControlOutletDN1            0.976      0.399714  
ControlOutletDN1            0.978      0.353577  
ControlOutletDN1            0.98       0.306863  
ControlOutletDN1            0.982      0.260273  
ControlOutletDN1            0.984      0.214633  
ControlOutletDN1            0.986      0.170871  
ControlOutletDN1            0.988      0.129996  
ControlOutletDN1            0.99       0.093057  
ControlOutletDN1            0.992      0.061089  
ControlOutletDN1            0.994      0.035062  
ControlOutletDN1            0.996      0.015812  
ControlOutletDN1            0.998      0.003988  
ControlOutletDN1            1.0        0.0       
;
ControlOutletDN2 Control    0.9        0.985953  
ControlOutletDN2            0.902      0.984442  
ControlOutletDN2            0.904      0.982766  
ControlOutletDN2            0.906      0.980909  
ControlOutletDN2            0.908      0.97885   
ControlOutletDN2            0.91       0.976567  
ControlOutletDN2            0.912      0.974035  
ControlOutletDN2            0.914      0.971227  
ControlOutletDN2            0.916      0.968113  
ControlOutletDN2            0.918      0.964659  
ControlOutletDN2            0.92       0.960829  
ControlOutletDN2            0.922      0.956582  
ControlOutletDN2            0.924      0.951871  
ControlOutletDN2            0.926      0.946648  
ControlOutletDN2            0.928      0.940858  
ControlOutletDN2            0.93       0.934439  
ControlOutletDN2            0.932      0.927326  
ControlOutletDN2            0.934      0.919445  
ControlOutletDN2            0.936      0.910718  
ControlOutletDN2            0.938      0.901058  
ControlOutletDN2            0.94       0.890372  
ControlOutletDN2            0.942      0.878558  
ControlOutletDN2            0.944      0.865508  
ControlOutletDN2            0.946      0.851109  
ControlOutletDN2            0.948      0.835238  
ControlOutletDN2            0.95       0.817769  
ControlOutletDN2            0.952      0.798572  
ControlOutletDN2            0.954      0.777517  
ControlOutletDN2            0.956      0.754473  
ControlOutletDN2            0.958      0.729317  
ControlOutletDN2            0.96       0.701937  
ControlOutletDN2            0.962      0.672239  
ControlOutletDN2            0.964      0.640154  
ControlOutletDN2            0.966      0.605648  
ControlOutletDN2            0.968      0.568737  
ControlOutletDN2            0.97       0.529495  
ControlOutletDN2            0.972      0.488069  
ControlOutletDN2            0.974      0.444695  
ControlOutletDN2            0.976      0.399714  
ControlOutletDN2            0.978      0.353577  
ControlOutletDN2            0.98       0.306863  
ControlOutletDN2            0.982      0.260273  
ControlOutletDN2            0.984      0.214633  
ControlOutletDN2            0.986      0.170871  
ControlOutletDN2            0.988      0.129996  
ControlOutletDN2            0.99       0.093057  
ControlOutletDN2            0.992      0.061089  
ControlOutletDN2            0.994      0.035062  
ControlOutletDN2            0.996      0.015812  
ControlOutletDN2            0.998      0.003988  
ControlOutletDN2            1.0        0.0       
;
ControlOutletDN3 Control    0.9        0.985953  
ControlOutletDN3            0.902      0.984442  
ControlOutletDN3            0.904      0.982766  
ControlOutletDN3            0.906      0.980909  
ControlOutletDN3            0.908      0.97885   
ControlOutletDN3            0.91       0.976567  
ControlOutletDN3            0.912      0.974035  
ControlOutletDN3            0.914      0.971227  
ControlOutletDN3            0.916      0.968113  
ControlOutletDN3            0.918      0.964659  
ControlOutletDN3            0.92       0.960829  
ControlOutletDN3            0.922      0.956582  
ControlOutletDN3            0.924      0.951871  
ControlOutletDN3            0.926      0.946648  
ControlOutletDN3            0.928      0.940858  
ControlOutletDN3            0.93       0.934439  
ControlOutletDN3            0.932      0.927326  
ControlOutletDN3            0.934      0.919445  
ControlOutletDN3            0.936      0.910718  
ControlOutletDN3            0.938      0.901058  
ControlOutletDN3            0.94       0.890372  
ControlOutletDN3            0.942      0.878558  
ControlOutletDN3            0.944      0.865508  
ControlOutletDN3            0.946      0.851109  
ControlOutletDN3            0.948      0.835238  
ControlOutletDN3            0.95       0.817769  
ControlOutletDN3            0.952      0.798572  
ControlOutletDN3            0.954      0.777517  
ControlOutletDN3            0.956      0.754473  
ControlOutletDN3            0.958      0.729317  
ControlOutletDN3            0.96       0.701937  
ControlOutletDN3            0.962      0.672239  
ControlOutletDN3            0.964      0.640154  
ControlOutletDN3            0.966      0.605648  
ControlOutletDN3            0.968      0.568737  
ControlOutletDN3            0.97       0.529495  
ControlOutletDN3            0.972      0.488069  
ControlOutletDN3            0.974      0.444695  
ControlOutletDN3            0.976      0.399714  
ControlOutletDN3            0.978      0.353577  
ControlOutletDN3            0.98       0.306863  
ControlOutletDN3            0.982      0.260273  
ControlOutletDN3            0.984      0.214633  
ControlOutletDN3            0.986      0.170871  
ControlOutletDN3            0.988      0.129996  
ControlOutletDN3            0.99       0.093057  
ControlOutletDN3            0.992      0.061089  
ControlOutletDN3            0.994      0.035062  
ControlOutletDN3            0.996      0.015812  
ControlOutletDN3            0.998      0.003988  
ControlOutletDN3            1.0        0.0       
;
ControlOutletDN4 Control    0.9        0.985953  
ControlOutletDN4            0.902      0.984442  
ControlOutletDN4            0.904      0.982766  
ControlOutletDN4            0.906      0.980909  
ControlOutletDN4            0.908      0.97885   
ControlOutletDN4            0.91       0.976567  
ControlOutletDN4            0.912      0.974035  
ControlOutletDN4            0.914      0.971227  
ControlOutletDN4            0.916      0.968113  
ControlOutletDN4            0.918      0.964659  
ControlOutletDN4            0.92       0.960829  
ControlOutletDN4            0.922      0.956582  
ControlOutletDN4            0.924      0.951871  
ControlOutletDN4            0.926      0.946648  
ControlOutletDN4            0.928      0.940858  
ControlOutletDN4            0.93       0.934439  
ControlOutletDN4            0.932      0.927326  
ControlOutletDN4            0.934      0.919445  
ControlOutletDN4            0.936      0.910718  
ControlOutletDN4            0.938      0.901058  
ControlOutletDN4            0.94       0.890372  
ControlOutletDN4            0.942      0.878558  
ControlOutletDN4            0.944      0.865508  
ControlOutletDN4            0.946      0.851109  
ControlOutletDN4            0.948      0.835238  
ControlOutletDN4            0.95       0.817769  
ControlOutletDN4            0.952      0.798572  
ControlOutletDN4            0.954      0.777517  
ControlOutletDN4            0.956      0.754473  
ControlOutletDN4            0.958      0.729317  
ControlOutletDN4            0.96       0.701937  
ControlOutletDN4            0.962      0.672239  
ControlOutletDN4            0.964      0.640154  
ControlOutletDN4            0.966      0.605648  
ControlOutletDN4            0.968      0.568737  
ControlOutletDN4            0.97       0.529495  
ControlOutletDN4            0.972      0.488069  
ControlOutletDN4            0.974      0.444695  
ControlOutletDN4            0.976      0.399714  
ControlOutletDN4            0.978      0.353577  
ControlOutletDN4            0.98       0.306863  
ControlOutletDN4            0.982      0.260273  
ControlOutletDN4            0.984      0.214633  
ControlOutletDN4            0.986      0.170871  
ControlOutletDN4            0.988      0.129996  
ControlOutletDN4            0.99       0.093057  
ControlOutletDN4            0.992      0.061089  
ControlOutletDN4            0.994      0.035062  
ControlOutletDN4            0.996      0.015812  
ControlOutletDN4            0.998      0.003988  
ControlOutletDN4            1.0        0.0       
;
DemandDN1        Rating     0          0         
DemandDN1                   0.01       22.222222 
;
DemandDN2        Rating     0          0         
DemandDN2                   0.01       22.222222 
;
DemandDN3        Rating     0          0         
DemandDN3                   0.01       33.333333 
;
DemandDN4        Rating     0          0         
DemandDN4                   0.01       11.111111 
;
Source1          Storage    0          1         
Source1                     6.0        1         
Source1                     7.0        15360.000019
Source1                     8.0        15360.000019

[TIMESERIES]
;;Name           Date       Time       Value     
;;-------------- ---------- ---------- ----------
Pattern                     0          0.8       
Pattern                     1          0.7       
Pattern                     2          0.6       
Pattern                     3          0.5       
Pattern                     4          0.5       
Pattern                     5          0.5       
Pattern                     6          0.6       
Pattern                     7          0.8       
Pattern                     8          1.2       
Pattern                     9          1.3       
Pattern                     10         1.2       
Pattern                     11         1.2       
Pattern                     12         1.2       
Pattern                     13         1.2       
Pattern                     14         1.2       
Pattern                     15         1.2       
Pattern                     16         1.1       
Pattern                     17         1.1       
Pattern                     18         1.1       
Pattern                     19         1.2       
Pattern                     20         1.3       
Pattern                     21         1.3       
Pattern                     22         1.1       
Pattern                     23         1         
Pattern                     24         0.8       
Pattern                     25         0.7       
Pattern                     26         0.6       