[TITLE]
;;Project Title/Notes

[OPTIONS]
;;Option             Value
FLOW_UNITS           LPS
INFILTRATION         HORTON
FLOW_ROUTING         DYNWAVE
LINK_OFFSETS         DEPTH
MIN_SLOPE            0
ALLOW_PONDING        NO
SKIP_STEADY_STATE    NO

START_DATE           05/18/2022
START_TIME           00:00:00
REPORT_START_DATE    05/18/2022
REPORT_START_TIME    00:00:00
END_DATE             05/18/2022
END_TIME             23:59:00
SWEEP_START          01/01
SWEEP_END            12/31
DRY_DAYS             0
REPORT_STEP          01:00:00
WET_STEP             00:01:00
DRY_STEP             00:01:00
ROUTING_STEP         0:00:01 
RULE_STEP            00:00:00

INERTIAL_DAMPING     PARTIAL
NORMAL_FLOW_LIMITED  BOTH
FORCE_MAIN_EQUATION  H-W
VARIABLE_STEP        0.00
LENGTHENING_STEP     0
MIN_SURFAREA         0.00001
MAX_TRIALS           20
HEAD_TOLERANCE       0.000005
SYS_FLOW_TOL         5
LAT_FLOW_TOL         5
MINIMUM_STEP         0.1
THREADS              1

[EVAPORATION]
;;Data Source    Parameters
;;-------------- ----------------
CONSTANT         0.0
DRY_ONLY         NO

[JUNCTIONS]
;;Name           Elevation  MaxDepth   InitDepth  SurDepth   Aponded   
;;-------------- ---------- ---------- ---------- ---------- ----------
1                39.490000  0          0          100        0         
2                39.620000  0          0          100        0         
3                38.700000  0          0          100        0         
4                37.250000  0          0          100        0         
5                36.270000  0          0          100        0         
6                35.950000  0          0          100        0         
7                35.950000  0          0          100        0         
8                36.090000  0          0          100        0         
9                36.180000  0          0          100        0         
10               37.000000  0          0          100        0         
11               36.500000  0          0          100        0         
12               37.390000  0          0          100        0         
13               38.070000  0          0          100        0         
14               37.020000  0          0          100        0         
15               41.260000  0          0          100        0         
16               39.350000  0          0          100        0         
17               39.530000  0          0          100        0         
18               36.590000  0          0          100        0         
19               36.760000  0          0          100        0         
20               37.720000  0          0          100        0         
21               37.310000  0          0          100        0         
22               37.620000  0          0          100        0         
23               36.990000  0          0          100        0         
24               35.200000  0          0          100        0         
25               35.110000  0          0          100        0         
26               34.650000  0          0          100        0         
27               34.330000  0          0          100        0         
28               36.150000  0          0          100        0         
29               36.300000  0          0          100        0         
30               36.100000  0          0          100        0         
31               36.140000  0          0          100        0         
32               35.800000  0          0          100        0         
33               33.260000  0          0          100        0         
34               33.340000  0          0          100        0         
35               33.510000  0          0          100        0         
36               32.700000  0          0          100        0         
37               32.650000  0          0          100        0         
38               32.560000  0          0          100        0         
39               33.560000  0          0          100        0         
40               31.590000  0          0          100        0         
41               31.380000  0          0          100        0         
42               32.670000  0          0          100        0         
43               33.500000  0          0          100        0         
44               33.570000  0          0          100        0         
45               33.770000  0          0          100        0         
46               34.140000  0          0          100        0         
47               33.680000  0          0          100        0         
48               33.710000  0          0          100        0         
49               31.680000  0          0          100        0         
50               33.340000  0          0          100        0         
51               32.830000  0          0          100        0         
53               39.280000  0          0          100        0         
54               37.120000  0          0          100        0         
55               36.480000  0          0          100        0         
56               36.420000  0          0          100        0         
57               36.130000  0          0          100        0         
58               36.050000  0          0          100        0         
59               36.770000  0          0          100        0         
60               35.480000  0          0          100        0         
61               35.050000  0          0          100        0         
62               35.100000  0          0          100        0         
63               37.950000  0          0          100        0         
64               38.440000  0          0          100        0         
65               37.810000  0          0          100        0         
66               38.220000  0          0          100        0         
67               38.730000  0          0          100        0         
68               38.950000  0          0          100        0         
69               39.700000  0          0          100        0         
70               40.590000  0          0          100        0         
71               40.810000  0          0          100        0         
72               41.060000  0          0          100        0         
73               41.450000  0          0          100        0         
74               41.830000  0          0          100        0         
75               41.440000  0          0          100        0         
76               41.090000  0          0          100        0         
77               40.740000  0          0          100        0         
78               38.600000  0          0          100        0         
79               36.910000  0          0          100        0         
80               36.750000  0          0          100        0         
81               36.810000  0          0          100        0         
82               37.050000  0          0          100        0         
83               35.880000  0          0          100        0         
84               36.450000  0          0          100        0         
85               36.160000  0          0          100        0         
86               34.990000  0          0          100        0         
87               35.610000  0          0          100        0         
88               34.890000  0          0          100        0         
89               35.590000  0          0          100        0         
90               35.700000  0          0          100        0         
91               35.200000  0          0          100        0         
92               35.640000  0          0          100        0         
93               35.930000  0          0          100        0         
94               37.640000  0          0          100        0         
95               37.170000  0          0          100        0         
96               37.100000  0          0          100        0         
97               36.970000  0          0          100        0         
98               37.000000  0          0          100        0         
99               36.740000  0          0          100        0         
100              34.780000  0          0          100        0         
101              34.260000  0          0          100        0         
102              33.660000  0          0          100        0         
103              33.780000  0          0          100        0         
104              33.750000  0          0          100        0         
105              33.380000  0          0          100        0         
106              34.850000  0          0          100        0         
107              34.270000  0          0          100        0         
108              34.300000  0          0          100        0         
109              33.950000  0          0          100        0         
110              33.920000  0          0          100        0         
111              32.320000  0          0          100        0         
112              34.760000  0          0          100        0         
113              34.210000  0          0          100        0         
114              34.920000  0          0          100        0         
115              32.960000  0          0          100        0         
116              30.690000  0          0          100        0         
117              30.590000  0          0          100        0         
118              30.730000  0          0          100        0         
119              30.700000  0          0          100        0         
120              31.020000  0          0          100        0         
121              31.030000  0          0          100        0         
122              31.750000  0          0          100        0         
123              32.000000  0          0          100        0         
124              32.050000  0          0          100        0         
125              32.100000  0          0          100        0         
126              33.760000  0          0          100        0         
127              32.270000  0          0          100        0         
128              31.860000  0          0          100        0         
129              32.420000  0          0          100        0         
130              33.000000  0          0          100        0         
131              33.630000  0          0          100        0         
132              36.370000  0          0          100        0         
133              35.690000  0          0          100        0         
134              35.520000  0          0          100        0         
135              35.560000  0          0          100        0         
136              35.920000  0          0          100        0         
137              35.370000  0          0          100        0         
138              35.060000  0          0          100        0         
139              34.120000  0          0          100        0         
140              39.350000  0          0          100        0         
141              39.100000  0          0          100        0         
142              39.840000  0          0          100        0         
143              39.840000  0          0          100        0         
144              39.450000  0          0          100        0         
145              39.700000  0          0          100        0         
146              37.950000  0          0          100        0         
147              37.610000  0          0          100        0         
148              37.950000  0          0          100        0         
149              35.690000  0          0          100        0         
150              35.320000  0          0          100        0         
151              35.810000  0          0          100        0         
152              35.810000  0          0          100        0         
153              36.020000  0          0          100        0         
154              38.250000  0          0          100        0         
155              37.500000  0          0          100        0         
156              37.540000  0          0          100        0         
157              37.080000  0          0          100        0         
158              36.760000  0          0          100        0         
159              35.880000  0          0          100        0         
160              35.770000  0          0          100        0         
161              34.700000  0          0          100        0         
162              35.370000  0          0          100        0         
163              34.990000  0          0          100        0         
164              35.930000  0          0          100        0         
165              36.270000  0          0          100        0         
166              32.670000  0          0          100        0         
167              32.750000  0          0          100        0         
168              32.880000  0          0          100        0         
169              34.090000  0          0          100        0         
170              36.090000  0          0          100        0         
171              36.050000  0          0          100        0         
172              36.040000  0          0          100        0         
173              36.020000  0          0          100        0         
174              31.760000  0          0          100        0         
175              31.910000  0          0          100        0         
176              31.800000  0          0          100        0         
177              31.480000  0          0          100        0         
178              31.120000  0          0          100        0         
179              31.100000  0          0          100        0         
180              31.190000  0          0          100        0         
181              30.390000  0          0          100        0         
182              30.550000  0          0          100        0         
183              31.130000  0          0          100        0         
184              31.810000  0          0          100        0         
185              32.340000  0          0          100        0         
186              32.830000  0          0          100        0         
187              33.690000  0          0          100        0         
188              33.170000  0          0          100        0         
189              33.230000  0          0          100        0         
190              33.340000  0          0          100        0         
191              33.770000  0          0          100        0         
192              33.770000  0          0          100        0         
193              32.200000  0          0          100        0         
194              34.410000  0          0          100        0         
195              33.390000  0          0          100        0         
196              34.340000  0          0          100        0         
197              35.030000  0          0          100        0         
198              34.440000  0          0          100        0         
199              34.530000  0          0          100        0         
200              34.940000  0          0          100        0         
201              34.700000  0          0          100        0         
202              36.700000  0          0          100        0         
203              36.200000  0          0          100        0         
204              35.030000  0          0          100        0         
205              36.770000  0          0          100        0         
206              36.200000  0          0          100        0         
207              37.880000  0          0          100        0         
208              38.030000  0          0          100        0         
210              37.240000  0          0          100        0         
211              36.660000  0          0          100        0         
212              36.490000  0          0          100        0         
213              37.300000  0          0          100        0         
214              40.300000  0          0          100        0         
215              39.850000  0          0          100        0         
216              41.000000  0          0          100        0         
217              41.160000  0          0          100        0         
218              35.050000  0          0          100        0         
219              33.920000  0          0          100        0         
220              32.140000  0          0          100        0         
221              34.170000  0          0          100        0         
222              35.100000  0          0          100        0         
223              31.550000  0          0          100        0         
224              31.750000  0          0          100        0         
225              32.070000  0          0          100        0         
226              31.940000  0          0          100        0         
227              31.660000  0          0          100        0         
228              31.040000  0          0          100        0         
229              31.050000  0          0          100        0         
230              38.490000  0          0          100        0         
231              35.680000  0          0          100        0         
232              35.390000  0          0          100        0         
233              34.890000  0          0          100        0         
234              34.860000  0          0          100        0         
235              34.990000  0          0          100        0         
236              32.540000  0          0          100        0         
237              34.410000  0          0          100        0         
238              36.160000  0          0          100        0         
239              35.300000  0          0          100        0         
240              35.170000  0          0          100        0         
241              32.920000  0          0          100        0         
242              33.070000  0          0          100        0         
243              31.910000  0          0          100        0         
244              32.000000  0          0          100        0         
245              32.050000  0          0          100        0         
246              32.050000  0          0          100        0         
247              30.700000  0          0          100        0         
248              31.330000  0          0          100        0         
249              36.300000  0          0          100        0         
250              35.830000  0          0          100        0         
251              36.950000  0          0          100        0         
252              38.010000  0          0          100        0         
253              36.650000  0          0          100        0         
254              36.910000  0          0          100        0         
255              36.770000  0          0          100        0         
256              31.500000  0          0          100        0         
257              38.650000  0          0          100        0         
258              39.540000  0          0          100        0         
259              39.580000  0          0          100        0         
260              39.580000  0          0          100        0         
261              40.550000  0          0          100        0         
262              40.790000  0          0          100        0         
263              40.950000  0          0          100        0         
264              37.760000  0          0          100        0         
265              35.960000  0          0          100        0         
266              36.810000  0          0          100        0         
267              36.210000  0          0          100        0         
268              35.610000  0          0          100        0         
1-1-16           39.451250  0          0          100        0         
16-1-2           39.385909  0          0          100        0         
16-2-2           39.409318  0          0          100        0         
16-3-2           39.432727  0          0          100        0         
16-4-2           39.456136  0          0          100        0         
16-5-2           39.479545  0          0          100        0         
16-6-2           39.502955  0          0          100        0         
16-7-2           39.526364  0          0          100        0         
16-8-2           39.549773  0          0          100        0         
16-9-2           39.573182  0          0          100        0         
16-10-2          39.596591  0          0          100        0         
2-1-3            39.578182  0          0          100        0         
2-2-3            39.536364  0          0          100        0         
2-3-3            39.494545  0          0          100        0         
2-4-3            39.452727  0          0          100        0         
2-5-3            39.410909  0          0          100        0         
2-6-3            39.369091  0          0          100        0         
2-7-3            39.327273  0          0          100        0         
2-8-3            39.285455  0          0          100        0         
2-9-3            39.243636  0          0          100        0         
2-10-3           39.201818  0          0          100        0         
2-11-3           39.160000  0          0          100        0         
2-12-3           39.118182  0          0          100        0         
2-13-3           39.076364  0          0          100        0         
2-14-3           39.034545  0          0          100        0         
2-15-3           38.992727  0          0          100        0         
2-16-3           38.950909  0          0          100        0         
2-17-3           38.909091  0          0          100        0         
2-18-3           38.867273  0          0          100        0         
2-19-3           38.825455  0          0          100        0         
2-20-3           38.783636  0          0          100        0         
2-21-3           38.741818  0          0          100        0         
3-1-4            38.635227  0          0          100        0         
3-2-4            38.570455  0          0          100        0         
3-3-4            38.505682  0          0          100        0         
3-4-4            38.440909  0          0          100        0         
3-5-4            38.376136  0          0          100        0         
3-6-4            38.311364  0          0          100        0         
3-7-4            38.246591  0          0          100        0         
3-8-4            38.181818  0          0          100        0         
3-9-4            38.117045  0          0          100        0         
3-10-4           38.052273  0          0          100        0         
3-11-4           37.987500  0          0          100        0         
3-12-4           37.922727  0          0          100        0         
3-13-4           37.857955  0          0          100        0         
3-14-4           37.793182  0          0          100        0         
3-15-4           37.728409  0          0          100        0         
3-16-4           37.663636  0          0          100        0         
3-17-4           37.598864  0          0          100        0         
3-18-4           37.534091  0          0          100        0         
3-19-4           37.469318  0          0          100        0         
3-20-4           37.404545  0          0          100        0         
3-21-4           37.339773  0          0          100        0         
4-1-5            37.215882  0          0          100        0         
4-2-5            37.156765  0          0          100        0         
4-3-5            37.097647  0          0          100        0         
4-4-5            37.038529  0          0          100        0         
4-5-5            36.979412  0          0          100        0         
4-6-5            36.920294  0          0          100        0         
4-7-5            36.861176  0          0          100        0         
4-8-5            36.802059  0          0          100        0         
4-9-5            36.742941  0          0          100        0         
4-10-5           36.683824  0          0          100        0         
4-11-5           36.624706  0          0          100        0         
4-12-5           36.565588  0          0          100        0         
4-13-5           36.506471  0          0          100        0         
4-14-5           36.447353  0          0          100        0         
4-15-5           36.388235  0          0          100        0         
4-16-5           36.329118  0          0          100        0         
5-1-206          36.260000  0          0          100        0         
5-2-206          36.250000  0          0          100        0         
5-3-206          36.240000  0          0          100        0         
5-4-206          36.230000  0          0          100        0         
5-5-206          36.220000  0          0          100        0         
5-6-206          36.210000  0          0          100        0         
206-1-6          36.183036  0          0          100        0         
206-2-6          36.166071  0          0          100        0         
206-3-6          36.149107  0          0          100        0         
206-4-6          36.132143  0          0          100        0         
206-5-6          36.115179  0          0          100        0         
206-6-6          36.098214  0          0          100        0         
206-7-6          36.081250  0          0          100        0         
206-8-6          36.064286  0          0          100        0         
206-9-6          36.047321  0          0          100        0         
206-10-6         36.030357  0          0          100        0         
206-11-6         36.013393  0          0          100        0         
206-12-6         35.996429  0          0          100        0         
206-13-6         35.979464  0          0          100        0         
1-1-140          39.457500  0          0          100        0         
140-1-143        39.394545  0          0          100        0         
140-2-143        39.439091  0          0          100        0         
140-3-143        39.483636  0          0          100        0         
140-4-143        39.528182  0          0          100        0         
140-5-143        39.572727  0          0          100        0         
140-6-143        39.617273  0          0          100        0         
140-7-143        39.661818  0          0          100        0         
140-8-143        39.706364  0          0          100        0         
140-9-143        39.750909  0          0          100        0         
140-10-143       39.795455  0          0          100        0         
143-1-145        39.770000  0          0          100        0         
145-1-146        39.651389  0          0          100        0         
145-2-146        39.602778  0          0          100        0         
145-3-146        39.554167  0          0          100        0         
145-4-146        39.505556  0          0          100        0         
145-5-146        39.456944  0          0          100        0         
145-6-146        39.408333  0          0          100        0         
145-7-146        39.359722  0          0          100        0         
145-8-146        39.311111  0          0          100        0         
145-9-146        39.262500  0          0          100        0         
145-10-146       39.213889  0          0          100        0         
145-11-146       39.165278  0          0          100        0         
145-12-146       39.116667  0          0          100        0         
145-13-146       39.068056  0          0          100        0         
145-14-146       39.019444  0          0          100        0         
145-15-146       38.970833  0          0          100        0         
145-16-146       38.922222  0          0          100        0         
145-17-146       38.873611  0          0          100        0         
145-18-146       38.825000  0          0          100        0         
145-19-146       38.776389  0          0          100        0         
145-20-146       38.727778  0          0          100        0         
145-21-146       38.679167  0          0          100        0         
145-22-146       38.630556  0          0          100        0         
145-23-146       38.581944  0          0          100        0         
145-24-146       38.533333  0          0          100        0         
145-25-146       38.484722  0          0          100        0         
145-26-146       38.436111  0          0          100        0         
145-27-146       38.387500  0          0          100        0         
145-28-146       38.338889  0          0          100        0         
145-29-146       38.290278  0          0          100        0         
145-30-146       38.241667  0          0          100        0         
145-31-146       38.193056  0          0          100        0         
145-32-146       38.144444  0          0          100        0         
145-33-146       38.095833  0          0          100        0         