[TITLE]
;;Project Title/Notes

[OPTIONS]
;;Option             Value
FLOW_UNITS           LPS
INFILTRATION         HORTON
FLOW_ROUTING         DYNWAVE
LINK_OFFSETS         DEPTH
MIN_SLOPE            0
ALLOW_PONDING        NO
SKIP_STEADY_STATE    NO

START_DATE           05/18/2022
START_TIME           00:00:00
REPORT_START_DATE    05/18/2022
REPORT_START_TIME    00:00:00
END_DATE             05/18/2022
END_TIME             23:59:00
SWEEP_START          01/01
SWEEP_END            12/31
DRY_DAYS             0
REPORT_STEP          00:00:10
WET_STEP             00:01:00
DRY_STEP             00:01:00
ROUTING_STEP         0.2
RULE_STEP            00:00:00

INERTIAL_DAMPING     PARTIAL
NORMAL_FLOW_LIMITED  BOTH
FORCE_MAIN_EQUATION  H-W
VARIABLE_STEP        0.75
LENGTHENING_STEP     0
MIN_SURFAREA         0.00000001
MAX_TRIALS           20
HEAD_TOLERANCE       0.000005
SYS_FLOW_TOL         5
LAT_FLOW_TOL         5
MINIMUM_STEP         0.1
THREADS              1

[FILES]
;;Interfacing Files


[EVAPORATION]
;;Data Source    Parameters
;;-------------- ----------------
CONSTANT         0.0
DRY_ONLY         NO

[JUNCTIONS]
;;Name           Elevation  MaxDepth   InitDepth  SurDepth   Aponded
;;-------------- ---------- ---------- ---------- ---------- ----------
       DN1  99.350000          0          0        100          0
       DN2  99.650000          0          0        100          0
       DN3  96.390000          0          0        100          0
       DN4  96.300000          0          0        100          0
       DN5  96.310000          0          0        100          0
       DN6  95.880000          0          0        100          0
       DN7  96.440000          0          0        100          0
       DN8  96.140000          0          0        100          0
       DN9  96.080000          0          0        100          0
   1-1-DN1  99.850000          0          0        100          0
 DN1-1-DN2  99.399312          0          0        100          0
 DN1-2-DN2  99.435125          0          0        100          0
 DN1-3-DN2  99.470937          0          0        100          0
 DN1-4-DN2  99.506750          0          0        100          0
 DN1-5-DN2  99.542563          0          0        100          0
 DN1-6-DN2  99.578375          0          0        100          0
 DN1-7-DN2  99.614187          0          0        100          0
 DN1-1-DN3  97.870000          0          0        100          0
 DN3-1-DN4  96.345000          0          0        100          0
 DN3-1-DN7  96.409583          0          0        100          0
 DN3-2-DN7  96.415667          0          0        100          0
 DN3-3-DN7  96.421750          0          0        100          0
 DN3-4-DN7  96.427833          0          0        100          0
 DN3-5-DN7  96.433917          0          0        100          0
 DN4-1-DN5  96.308333          0          0        100          0
 DN4-2-DN5  96.309167          0          0        100          0
 DN4-1-DN8  96.255667          0          0        100          0
 DN4-2-DN8  96.197833          0          0        100          0
 DN5-1-DN6  96.267556          0          0        100          0
 DN5-2-DN6  96.219111          0          0        100          0
 DN5-3-DN6  96.170667          0          0        100          0
 DN5-4-DN6  96.122222          0          0        100          0
 DN5-5-DN6  96.073778          0          0        100          0
 DN5-6-DN6  96.025333          0          0        100          0
 DN5-7-DN6  95.976889          0          0        100          0
 DN5-8-DN6  95.928444          0          0        100          0
 DN5-1-DN9  96.257000          0          0        100          0
 DN5-2-DN9  96.198000          0          0        100          0
 DN5-3-DN9  96.139000          0          0        100          0


[OUTFALLS]
;;Name           Elevation  Type       Stage Data       Gated    Route To
;;-------------- ---------- ---------- ---------------- -------- ----------------
  OutfallDN1      99.35       FREE                    NO
  OutfallDN2      99.65       FREE                    NO
  OutfallDN3      96.39       FREE                    NO
  OutfallDN4      96.30       FREE                    NO
  OutfallDN5      96.31       FREE                    NO
  OutfallDN6      95.88       FREE                    NO
  OutfallDN7      96.44       FREE                    NO
  OutfallDN8      96.14       FREE                    NO
  OutfallDN9      96.08       FREE                    NO
L_OutfallDN1      99.35       FREE                    NO
L_OutfallDN2      99.65       FREE                    NO
L_OutfallDN3      96.39       FREE                    NO
L_OutfallDN4      96.30       FREE                    NO
L_OutfallDN5      96.31       FREE                    NO
L_OutfallDN6      95.88       FREE                    NO
L_OutfallDN7      96.44       FREE                    NO
L_OutfallDN8      96.14       FREE                    NO
L_OutfallDN9      96.08       FREE                    NO


[STORAGE]
;;Name           Elev.    MaxDepth   InitDepth  Shape      Curve Name/Params            N/A      Fevap    Psi      Ksat     IMD
;;-------------- -------- ---------- ----------- ---------- ---------------------------- -------- --------          -------- --------
      Reservoir-1     101.35      115.0       3.65    TABULAR    Source1                                0          0
StorageforNodeDN1      99.35        1.0       0.20 FUNCTIONAL          0          0   0.133333          0          0
StorageforNodeDN2      99.65        1.0       0.20 FUNCTIONAL          0          0   0.133333          0          0
StorageforNodeDN3      96.39        1.0       0.20 FUNCTIONAL          0          0   0.133333          0          0
StorageforNodeDN4      96.30        1.0       0.20 FUNCTIONAL          0          0   0.133333          0          0
StorageforNodeDN5      96.31        1.0       0.20 FUNCTIONAL          0          0   0.133333          0          0
StorageforNodeDN6      95.88        1.0       0.20 FUNCTIONAL          0          0   0.133333          0          0
StorageforNodeDN7      96.44        1.0       0.20 FUNCTIONAL          0          0   0.133333          0          0
StorageforNodeDN8      96.14        1.0       0.20 FUNCTIONAL          0          0   0.133333          0          0
StorageforNodeDN9      96.08        1.0       0.20 FUNCTIONAL          0          0   0.133333          0          0


[CONDUITS]
;;Name           From Node        To Node          Length     Roughness  InOffset   OutOffset  InitFlow   MaxFlow
;;-------------- ---------------- ---------------- ---------- ---------- ---------- ---------- ---------- ----------
      P1-1 Reservoir-1    1-1-DN1  15.000000      0.011     0.0000        0.0          0          0
      P1-2     1-1-DN1        DN1  15.000000      0.011     0.0000        0.0          0          0
      P2-1         DN1  DN1-1-DN2  18.750000      0.011     0.0135        0.0          0          0
      P2-2   DN1-1-DN2  DN1-2-DN2  18.750000      0.011     0.0000        0.0          0          0
      P2-3   DN1-2-DN2  DN1-3-DN2  18.750000      0.011     0.0000        0.0          0          0
      P2-4   DN1-3-DN2  DN1-4-DN2  18.750000      0.011     0.0000        0.0          0          0
      P2-5   DN1-4-DN2  DN1-5-DN2  18.750000      0.011     0.0000        0.0          0          0
      P2-6   DN1-5-DN2  DN1-6-DN2  18.750000      0.011     0.0000        0.0          0          0
      P2-7   DN1-6-DN2  DN1-7-DN2  18.750000      0.011     0.0000        0.0          0          0
      P2-8   DN1-7-DN2        DN2  18.750000      0.011     0.0000        0.0          0          0
      P3-1         DN1  DN1-1-DN3  15.000000      0.011     0.0000        0.0          0          0
      P3-2   DN1-1-DN3        DN3  15.000000      0.011     0.0000        0.0          0          0
      P4-1         DN3  DN3-1-DN4  20.000000      0.011     0.0000        0.0          0          0
      P4-2   DN3-1-DN4        DN4  20.000000      0.011     0.0000        0.0          0          0
      P5-1         DN3  DN3-1-DN7  18.333333      0.011     0.0135        0.0          0          0
      P5-2   DN3-1-DN7  DN3-2-DN7  18.333333      0.011     0.0000        0.0          0          0
      P5-3   DN3-2-DN7  DN3-3-DN7  18.333333      0.011     0.0000        0.0          0          0
      P5-4   DN3-3-DN7  DN3-4-DN7  18.333333      0.011     0.0000        0.0          0          0
      P5-5   DN3-4-DN7  DN3-5-DN7  18.333333      0.011     0.0000        0.0          0          0
      P5-6   DN3-5-DN7        DN7  18.333333      0.011     0.0000        0.0          0          0
      P6-1         DN4  DN4-1-DN5  16.666667      0.011     0.0075        0.0          0          0
      P6-2   DN4-1-DN5  DN4-2-DN5  16.666667      0.011     0.0000        0.0          0          0
      P6-3   DN4-2-DN5        DN5  16.666667      0.011     0.0000        0.0          0          0
      P7-1         DN4  DN4-1-DN8  16.666667      0.011     0.0135        0.0          0          0
      P7-2   DN4-1-DN8  DN4-2-DN8  16.666667      0.011     0.0000        0.0          0          0
      P7-3   DN4-2-DN8        DN8  16.666667      0.011     0.0000        0.0          0          0
      P8-1         DN5  DN5-1-DN6  18.888889      0.011     0.0060        0.0          0          0
      P8-2   DN5-1-DN6  DN5-2-DN6  18.888889      0.011     0.0000        0.0          0          0
      P8-3   DN5-2-DN6  DN5-3-DN6  18.888889      0.011     0.0000        0.0          0          0
      P8-4   DN5-3-DN6  DN5-4-DN6  18.888889      0.011     0.0000        0.0          0          0
      P8-5   DN5-4-DN6  DN5-5-DN6  18.888889      0.011     0.0000        0.0          0          0
      P8-6   DN5-5-DN6  DN5-6-DN6  18.888889      0.011     0.0000        0.0          0          0
      P8-7   DN5-6-DN6  DN5-7-DN6  18.888889      0.011     0.0000        0.0          0          0
      P8-8   DN5-7-DN6  DN5-8-DN6  18.888889      0.011     0.0000        0.0          0          0
      P8-9   DN5-8-DN6        DN6  18.888889      0.011     0.0000        0.0          0          0
      P9-1         DN5  DN5-1-DN9  17.500000      0.011     0.0060        0.0          0          0
      P9-2   DN5-1-DN9  DN5-2-DN9  17.500000      0.011     0.0000        0.0          0          0
      P9-3   DN5-2-DN9  DN5-3-DN9  17.500000      0.011     0.0000        0.0          0          0
      P9-4   DN5-3-DN9        DN9  17.500000      0.011     0.0000        0.0          0          0

[PUMPS]
;;Name           From Node        To Node          Pump Curve       Status   Sartup Shutoff 
;;-------------- ---------------- ---------------- ---------------- ------ -------- --------

[OUTLETS]
;;Name           From Node        To Node          Offset     Type            QTable/Qcoeff    Qexpon     Gated
;;-------------- ---------------- ---------------- ---------- --------------- ---------------- ---------- --------
      OutletDN1               DN1 StorageforNodeDN1     0.0450 FUNCTIONAL/PRESSURE   0.004392        0.5        YES
      OutletDN2               DN2 StorageforNodeDN2     0.0315 FUNCTIONAL/PRESSURE   0.004392        0.5        YES
      OutletDN3               DN3 StorageforNodeDN3     0.0450 FUNCTIONAL/PRESSURE   0.004392        0.5        YES
      OutletDN4               DN4 StorageforNodeDN4     0.0450 FUNCTIONAL/PRESSURE   0.004392        0.5        YES
      OutletDN5               DN5 StorageforNodeDN5     0.0375 FUNCTIONAL/PRESSURE   0.004392        0.5        YES
      OutletDN6               DN6 StorageforNodeDN6     0.0315 FUNCTIONAL/PRESSURE   0.004392        0.5        YES
      OutletDN7               DN7 StorageforNodeDN7     0.0315 FUNCTIONAL/PRESSURE   0.004392        0.5        YES
      OutletDN8               DN8 StorageforNodeDN8     0.0315 FUNCTIONAL/PRESSURE   0.004392        0.5        YES
      OutletDN9               DN9 StorageforNodeDN9     0.0315 FUNCTIONAL/PRESSURE   0.004392        0.5        YES
DemandOutletDN1 StorageforNodeDN1        OutfallDN1     0.0000       TABULAR/DEPTH  DemandDN1                   YES
DemandOutletDN2 StorageforNodeDN2        OutfallDN2     0.0000       TABULAR/DEPTH  DemandDN2                   YES
DemandOutletDN3 StorageforNodeDN3        OutfallDN3     0.0000       TABULAR/DEPTH  DemandDN3                   YES
DemandOutletDN4 StorageforNodeDN4        OutfallDN4     0.0000       TABULAR/DEPTH  DemandDN4                   YES
DemandOutletDN5 StorageforNodeDN5        OutfallDN5     0.0000       TABULAR/DEPTH  DemandDN5                   YES
DemandOutletDN6 StorageforNodeDN6        OutfallDN6     0.0000       TABULAR/DEPTH  DemandDN6                   YES
DemandOutletDN7 StorageforNodeDN7        OutfallDN7     0.0000       TABULAR/DEPTH  DemandDN7                   YES
DemandOutletDN8 StorageforNodeDN8        OutfallDN8     0.0000       TABULAR/DEPTH  DemandDN8                   YES
DemandOutletDN9 StorageforNodeDN9        OutfallDN9     0.0000       TABULAR/DEPTH  DemandDN9                   YES
 LeakforNodeDN1               DN1      L_OutfallDN1     0.0450    FUNCTIONAL/DEPTH   0.000439        0.5        YES
 LeakforNodeDN2               DN2      L_OutfallDN2     0.0315    FUNCTIONAL/DEPTH   0.000439        0.5        YES
 LeakforNodeDN3               DN3      L_OutfallDN3     0.0450    FUNCTIONAL/DEPTH   0.000439        0.5        YES
 LeakforNodeDN4               DN4      L_OutfallDN4     0.0450    FUNCTIONAL/DEPTH   0.000439        0.5        YES
 LeakforNodeDN5               DN5      L_OutfallDN5     0.0375    FUNCTIONAL/DEPTH   0.000439        0.5        YES
 LeakforNodeDN6               DN6      L_OutfallDN6     0.0315    FUNCTIONAL/DEPTH   0.000439        0.5        YES
 LeakforNodeDN7               DN7      L_OutfallDN7     0.0315    FUNCTIONAL/DEPTH   0.000439        0.5        YES
 LeakforNodeDN8               DN8      L_OutfallDN8     0.0315    FUNCTIONAL/DEPTH   0.000439        0.5        YES
 LeakforNodeDN9               DN9      L_OutfallDN9     0.0315    FUNCTIONAL/DEPTH   0.000439        0.5        YES


[XSECTIONS]
;;Link           Shape        Geom1            Geom2      Geom3      Geom4      Barrels    Culvert
;;-------------- ------------ ---------------- ---------- ---------- ---------- ---------- ----------
      P1-1 FORCE_MAIN      0.090        130          0          0          1
      P1-2 FORCE_MAIN      0.090        130          0          0          1
      P2-1 FORCE_MAIN      0.063        130          0          0          1
      P2-2 FORCE_MAIN      0.063        130          0          0          1
      P2-3 FORCE_MAIN      0.063        130          0          0          1
      P2-4 FORCE_MAIN      0.063        130          0          0          1
      P2-5 FORCE_MAIN      0.063        130          0          0          1
      P2-6 FORCE_MAIN      0.063        130          0          0          1
      P2-7 FORCE_MAIN      0.063        130          0          0          1
      P2-8 FORCE_MAIN      0.063        130          0          0          1
      P3-1 FORCE_MAIN      0.090        130          0          0          1
      P3-2 FORCE_MAIN      0.090        130          0          0          1
      P4-1 FORCE_MAIN      0.090        130          0          0          1
      P4-2 FORCE_MAIN      0.090        130          0          0          1
      P5-1 FORCE_MAIN      0.063        130          0          0          1
      P5-2 FORCE_MAIN      0.063        130          0          0          1
      P5-3 FORCE_MAIN      0.063        130          0          0          1
      P5-4 FORCE_MAIN      0.063        130          0          0          1
      P5-5 FORCE_MAIN      0.063        130          0          0          1
      P5-6 FORCE_MAIN      0.063        130          0          0          1
      P6-1 FORCE_MAIN      0.075        130          0          0          1
      P6-2 FORCE_MAIN      0.075        130          0          0          1
      P6-3 FORCE_MAIN      0.075        130          0          0          1
      P7-1 FORCE_MAIN      0.063        130          0          0          1
      P7-2 FORCE_MAIN      0.063        130          0          0          1
      P7-3 FORCE_MAIN      0.063        130          0          0          1
      P8-1 FORCE_MAIN      0.063        130          0          0          1
      P8-2 FORCE_MAIN      0.063        130          0          0          1
      P8-3 FORCE_MAIN      0.063        130          0          0          1
      P8-4 FORCE_MAIN      0.063        130          0          0          1
      P8-5 FORCE_MAIN      0.063        130          0          0          1
      P8-6 FORCE_MAIN      0.063        130          0          0          1
      P8-7 FORCE_MAIN      0.063        130          0          0          1
      P8-8 FORCE_MAIN      0.063        130          0          0          1
      P8-9 FORCE_MAIN      0.063        130          0          0          1
      P9-1 FORCE_MAIN      0.063        130          0          0          1
      P9-2 FORCE_MAIN      0.063        130          0          0          1
      P9-3 FORCE_MAIN      0.063        130          0          0          1
      P9-4 FORCE_MAIN      0.063        130          0          0          1

[CONTROLS]


[CONTROLS]
Rule OutletDN1
IF NODE StorageforNodeDN1 DEPTH >= 0.9
THEN OUTLET OutletDN1 SETTING = CURVE ControlOutletDN1

Rule OutletDN2
IF NODE StorageforNodeDN2 DEPTH >= 0.9
THEN OUTLET OutletDN2 SETTING = CURVE ControlOutletDN2

Rule OutletDN3
IF NODE StorageforNodeDN3 DEPTH >= 0.9
THEN OUTLET OutletDN3 SETTING = CURVE ControlOutletDN3

Rule OutletDN4
IF NODE StorageforNodeDN4 DEPTH >= 0.9
THEN OUTLET OutletDN4 SETTING = CURVE ControlOutletDN4

Rule OutletDN5
IF NODE StorageforNodeDN5 DEPTH >= 0.9
THEN OUTLET OutletDN5 SETTING = CURVE ControlOutletDN5

Rule OutletDN6
IF NODE StorageforNodeDN6 DEPTH >= 0.9
THEN OUTLET OutletDN6 SETTING = CURVE ControlOutletDN6

Rule OutletDN7
IF NODE StorageforNodeDN7 DEPTH >= 0.9
THEN OUTLET OutletDN7 SETTING = CURVE ControlOutletDN7

Rule OutletDN8
IF NODE StorageforNodeDN8 DEPTH >= 0.9
THEN OUTLET OutletDN8 SETTING = CURVE ControlOutletDN8

Rule OutletDN9
IF NODE StorageforNodeDN9 DEPTH >= 0.9
THEN OUTLET OutletDN9 SETTING = CURVE ControlOutletDN9

Rule STOPSUPPLY
IF SIMULATION CLOCKTIME > 08:00
THEN CONDUIT P1-1 STATUS = CLOSED

Rule STARTSUPPLY
IF SIMULATION CLOCKTIME >= 0:00
AND SIMULATION CLOCKTIME < 08:00
THEN CONDUIT P1-1 STATUS = OPEN

Rule Patterns
IF SIMULATION TIME > 0
THEN OUTLET DemandOutletDN1 SETTING = TIMESERIES Pattern
AND OUTLET DemandOutletDN2 SETTING = TIMESERIES Pattern
AND OUTLET DemandOutletDN3 SETTING = TIMESERIES Pattern
AND OUTLET DemandOutletDN4 SETTING = TIMESERIES Pattern
AND OUTLET DemandOutletDN5 SETTING = TIMESERIES Pattern
AND OUTLET DemandOutletDN6 SETTING = TIMESERIES Pattern
AND OUTLET DemandOutletDN7 SETTING = TIMESERIES Pattern
AND OUTLET DemandOutletDN8 SETTING = TIMESERIES Pattern
AND OUTLET DemandOutletDN9 SETTING = TIMESERIES Pattern

[INFLOWS]
;;Node           Constituent      Time Series      Type     Mfactor  Sfactor  Baseline Pattern
;;-------------- ---------------- ---------------- -------- -------- -------- -------- --------

[CURVES]
;;Name           Type       X-Value    Y-Value
;;-------------- ---------- ---------- ----------
 DemandDN1     Rating          0          0
 DemandDN1                  0.01    0.00463
         ;                                 
 DemandDN2     Rating          0          0
 DemandDN2                  0.01    0.00463
         ;                                 
 DemandDN3     Rating          0          0
 DemandDN3                  0.01    0.00463
         ;                                 
 DemandDN4     Rating          0          0
 DemandDN4                  0.01    0.00463
         ;                                 
 DemandDN5     Rating          0          0
 DemandDN5                  0.01    0.00463
         ;                                 
 DemandDN6     Rating          0          0
 DemandDN6                  0.01    0.00463
         ;                                 
 DemandDN7     Rating          0          0
 DemandDN7                  0.01    0.00463
         ;                                 
 DemandDN8     Rating          0          0
 DemandDN8                  0.01    0.00463
         ;                                 
 DemandDN9     Rating          0          0
 DemandDN9                  0.01    0.00463
         ;                                 
   Source1    Storage          0          1
   Source1                  1.65          1
   Source1                  2.65          5
   Source1                  3.65          5
         ;                                 
ControlOutletDN1	Control		0.9	0.985953
ControlOutletDN1			0.902	0.984442
ControlOutletDN1			0.904	0.982766
ControlOutletDN1			0.906	0.980909
ControlOutletDN1			0.908	0.97885
ControlOutletDN1			0.91	0.976567
ControlOutletDN1			0.912	0.974035
ControlOutletDN1			0.914	0.971227
ControlOutletDN1			0.916	0.968113
ControlOutletDN1			0.918	0.964659
ControlOutletDN1			0.92	0.960829
ControlOutletDN1			0.922	0.956582
ControlOutletDN1			0.924	0.951871
ControlOutletDN1			0.926	0.946648
ControlOutletDN1			0.928	0.940858
ControlOutletDN1			0.93	0.934439
ControlOutletDN1			0.932	0.927326
ControlOutletDN1			0.934	0.919445
ControlOutletDN1			0.936	0.910718
ControlOutletDN1			0.938	0.901058
ControlOutletDN1			0.94	0.890372
ControlOutletDN1			0.942	0.878558
ControlOutletDN1			0.944	0.865508
ControlOutletDN1			0.946	0.851109
ControlOutletDN1			0.948	0.835238
ControlOutletDN1			0.95	0.817769
ControlOutletDN1			0.952	0.798572
ControlOutletDN1			0.954	0.777517
ControlOutletDN1			0.956	0.754473
ControlOutletDN1			0.958	0.729317
ControlOutletDN1			0.96	0.701937
ControlOutletDN1			0.962	0.672239
ControlOutletDN1			0.964	0.640154
ControlOutletDN1			0.966	0.605648
ControlOutletDN1			0.968	0.568737
ControlOutletDN1			0.97	0.529495
ControlOutletDN1			0.972	0.488069
ControlOutletDN1			0.974	0.444695
ControlOutletDN1			0.976	0.399714
ControlOutletDN1			0.978	0.353577
ControlOutletDN1			0.98	0.306863
ControlOutletDN1			0.982	0.260273
ControlOutletDN1			0.984	0.214633
ControlOutletDN1			0.986	0.170871
ControlOutletDN1			0.988	0.129996
ControlOutletDN1			0.99	0.093057
ControlOutletDN1			0.992	0.061089
ControlOutletDN1			0.994	0.035062
ControlOutletDN1			0.996	0.015812
ControlOutletDN1			0.998	0.003988
ControlOutletDN1			1.0	0.0
;
ControlOutletDN2	Control		0.9	0.985953
ControlOutletDN2			0.902	0.984442
ControlOutletDN2			0.904	0.982766
ControlOutletDN2			0.906	0.980909
ControlOutletDN2			0.908	0.97885
ControlOutletDN2			0.91	0.976567
ControlOutletDN2			0.912	0.974035
ControlOutletDN2			0.914	0.971227
ControlOutletDN2			0.916	0.968113
ControlOutletDN2			0.918	0.964659
ControlOutletDN2			0.92	0.960829
ControlOutletDN2			0.922	0.956582
ControlOutletDN2			0.924	0.951871
ControlOutletDN2			0.926	0.946648
ControlOutletDN2			0.928	0.940858
ControlOutletDN2			0.93	0.934439
ControlOutletDN2			0.932	0.927326
ControlOutletDN2			0.934	0.919445
ControlOutletDN2			0.936	0.910718
ControlOutletDN2			0.938	0.901058
ControlOutletDN2			0.94	0.890372
ControlOutletDN2			0.942	0.878558
ControlOutletDN2			0.944	0.865508
ControlOutletDN2			0.946	0.851109
ControlOutletDN2			0.948	0.835238
ControlOutletDN2			0.95	0.817769
ControlOutletDN2			0.952	0.798572
ControlOutletDN2			0.954	0.777517
ControlOutletDN2			0.956	0.754473
ControlOutletDN2			0.958	0.729317
ControlOutletDN2			0.96	0.701937
ControlOutletDN2			0.962	0.672239
ControlOutletDN2			0.964	0.640154
ControlOutletDN2			0.966	0.605648
ControlOutletDN2			0.968	0.568737
ControlOutletDN2			0.97	0.529495
ControlOutletDN2			0.972	0.488069
ControlOutletDN2			0.974	0.444695
ControlOutletDN2			0.976	0.399714
ControlOutletDN2			0.978	0.353577
ControlOutletDN2			0.98	0.306863
ControlOutletDN2			0.982	0.260273
ControlOutletDN2			0.984	0.214633
ControlOutletDN2			0.986	0.170871
ControlOutletDN2			0.988	0.129996
ControlOutletDN2			0.99	0.093057
ControlOutletDN2			0.992	0.061089
ControlOutletDN2			0.994	0.035062
ControlOutletDN2			0.996	0.015812
ControlOutletDN2			0.998	0.003988
ControlOutletDN2			1.0	0.0
;
ControlOutletDN3	Control		0.9	0.985953
ControlOutletDN3			0.902	0.984442
ControlOutletDN3			0.904	0.982766
ControlOutletDN3			0.906	0.980909
ControlOutletDN3			0.908	0.97885
ControlOutletDN3			0.91	0.976567
ControlOutletDN3			0.912	0.974035
ControlOutletDN3			0.914	0.971227
ControlOutletDN3			0.916	0.968113
ControlOutletDN3			0.918	0.964659
ControlOutletDN3			0.92	0.960829
ControlOutletDN3			0.922	0.956582
ControlOutletDN3			0.924	0.951871
ControlOutletDN3			0.926	0.946648
ControlOutletDN3			0.928	0.940858
ControlOutletDN3			0.93	0.934439
ControlOutletDN3			0.932	0.927326
ControlOutletDN3			0.934	0.919445
ControlOutletDN3			0.936	0.910718
ControlOutletDN3			0.938	0.901058
ControlOutletDN3			0.94	0.890372
ControlOutletDN3			0.942	0.878558
ControlOutletDN3			0.944	0.865508
ControlOutletDN3			0.946	0.851109
ControlOutletDN3			0.948	0.835238
ControlOutletDN3			0.95	0.817769
ControlOutletDN3			0.952	0.798572
ControlOutletDN3			0.954	0.777517
ControlOutletDN3			0.956	0.754473
ControlOutletDN3			0.958	0.729317
ControlOutletDN3			0.96	0.701937
ControlOutletDN3			0.962	0.672239
ControlOutletDN3			0.964	0.640154
ControlOutletDN3			0.966	0.605648
ControlOutletDN3			0.968	0.568737
ControlOutletDN3			0.97	0.529495
ControlOutletDN3			0.972	0.488069
ControlOutletDN3			0.974	0.444695
ControlOutletDN3			0.976	0.399714
ControlOutletDN3			0.978	0.353577
ControlOutletDN3			0.98	0.306863
ControlOutletDN3			0.982	0.260273
ControlOutletDN3			0.984	0.214633
ControlOutletDN3			0.986	0.170871
ControlOutletDN3			0.988	0.129996
ControlOutletDN3			0.99	0.093057
ControlOutletDN3			0.992	0.061089
ControlOutletDN3			0.994	0.035062
ControlOutletDN3			0.996	0.015812
ControlOutletDN3			0.998	0.003988
ControlOutletDN3			1.0	0.0
;
ControlOutletDN4	Control		0.9	0.985953
ControlOutletDN4			0.902	0.984442
ControlOutletDN4			0.904	0.982766
ControlOutletDN4			0.906	0.980909
ControlOutletDN4			0.908	0.97885
ControlOutletDN4			0.91	0.976567
ControlOutletDN4			0.912	0.974035
ControlOutletDN4			0.914	0.971227
ControlOutletDN4			0.916	0.968113
ControlOutletDN4			0.918	0.964659
ControlOutletDN4			0.92	0.960829
ControlOutletDN4			0.922	0.956582
ControlOutletDN4			0.924	0.951871
ControlOutletDN4			0.926	0.946648
ControlOutletDN4			0.928	0.940858
ControlOutletDN4			0.93	0.934439
ControlOutletDN4			0.932	0.927326
ControlOutletDN4			0.934	0.919445
ControlOutletDN4			0.936	0.910718
ControlOutletDN4			0.938	0.901058
ControlOutletDN4			0.94	0.890372
ControlOutletDN4			0.942	0.878558
ControlOutletDN4			0.944	0.865508
ControlOutletDN4			0.946	0.851109
ControlOutletDN4			0.948	0.835238
ControlOutletDN4			0.95	0.817769
ControlOutletDN4			0.952	0.798572
ControlOutletDN4			0.954	0.777517
ControlOutletDN4			0.956	0.754473
ControlOutletDN4			0.958	0.729317
ControlOutletDN4			0.96	0.701937
ControlOutletDN4			0.962	0.672239
ControlOutletDN4			0.964	0.640154
ControlOutletDN4			0.966	0.605648
ControlOutletDN4			0.968	0.568737
ControlOutletDN4			0.97	0.529495
ControlOutletDN4			0.972	0.488069
ControlOutletDN4			0.974	0.444695
ControlOutletDN4			0.976	0.399714
ControlOutletDN4			0.978	0.353577
ControlOutletDN4			0.98	0.306863
ControlOutletDN4			0.982	0.260273
ControlOutletDN4			0.984	0.214633
ControlOutletDN4			0.986	0.170871
ControlOutletDN4			0.988	0.129996
ControlOutletDN4			0.99	0.093057
ControlOutletDN4			0.992	0.061089
ControlOutletDN4			0.994	0.035062
ControlOutletDN4			0.996	0.015812
ControlOutletDN4			0.998	0.003988
ControlOutletDN4			1.0	0.0
;
ControlOutletDN5	Control		0.9	0.985953
ControlOutletDN5			0.902	0.984442
ControlOutletDN5			0.904	0.982766
ControlOutletDN5			0.906	0.980909
ControlOutletDN5			0.908	0.97885
ControlOutletDN5			0.91	0.976567
ControlOutletDN5			0.912	0.974035
ControlOutletDN5			0.914	0.971227
ControlOutletDN5			0.916	0.968113
ControlOutletDN5			0.918	0.964659
ControlOutletDN5			0.92	0.960829
ControlOutletDN5			0.922	0.956582
ControlOutletDN5			0.924	0.951871
ControlOutletDN5			0.926	0.946648
ControlOutletDN5			0.928	0.940858
ControlOutletDN5			0.93	0.934439
ControlOutletDN5			0.932	0.927326
ControlOutletDN5			0.934	0.919445
ControlOutletDN5			0.936	0.910718
ControlOutletDN5			0.938	0.901058
ControlOutletDN5			0.94	0.890372
ControlOutletDN5			0.942	0.878558
ControlOutletDN5			0.944	0.865508
ControlOutletDN5			0.946	0.851109
ControlOutletDN5			0.948	0.835238
ControlOutletDN5			0.95	0.817769
ControlOutletDN5			0.952	0.798572
ControlOutletDN5			0.954	0.777517
ControlOutletDN5			0.956	0.754473
ControlOutletDN5			0.958	0.729317
ControlOutletDN5			0.96	0.701937
ControlOutletDN5			0.962	0.672239
ControlOutletDN5			0.964	0.640154
ControlOutletDN5			0.966	0.605648
ControlOutletDN5			0.968	0.568737
ControlOutletDN5			0.97	0.529495
ControlOutletDN5			0.972	0.488069
ControlOutletDN5			0.974	0.444695
ControlOutletDN5			0.976	0.399714
ControlOutletDN5			0.978	0.353577
ControlOutletDN5			0.98	0.306863
ControlOutletDN5			0.982	0.260273
ControlOutletDN5			0.984	0.214633
ControlOutletDN5			0.986	0.170871
ControlOutletDN5			0.988	0.129996
ControlOutletDN5			0.99	0.093057
ControlOutletDN5			0.992	0.061089
ControlOutletDN5			0.994	0.035062
ControlOutletDN5			0.996	0.015812
ControlOutletDN5			0.998	0.003988
ControlOutletDN5			1.0	0.0
;
ControlOutletDN6	Control		0.9	0.985953
ControlOutletDN6			0.902	0.984442
ControlOutletDN6			0.904	0.982766
ControlOutletDN6			0.906	0.980909
ControlOutletDN6			0.908	0.97885
ControlOutletDN6			0.91	0.976567
ControlOutletDN6			0.912	0.974035
ControlOutletDN6			0.914	0.971227
ControlOutletDN6			0.916	0.968113
ControlOutletDN6			0.918	0.964659
ControlOutletDN6			0.92	0.960829
ControlOutletDN6			0.922	0.956582
ControlOutletDN6			0.924	0.951871
ControlOutletDN6			0.926	0.946648