[TITLE]
;;Project Title/Notes

[OPTIONS]
;;Option             Value
FLOW_UNITS           LPS
INFILTRATION         HORTON
FLOW_ROUTING         DYNWAVE
LINK_OFFSETS         DEPTH
MIN_SLOPE            0
ALLOW_PONDING        NO
SKIP_STEADY_STATE    NO

START_DATE           05/18/2022
START_TIME           00:00:00
REPORT_START_DATE    05/18/2022
REPORT_START_TIME    00:00:00
END_DATE             05/18/2022
END_TIME             23:59:00
SWEEP_START          01/01
SWEEP_END            12/31
DRY_DAYS             0
REPORT_STEP          00:00:10
WET_STEP             00:01:00
DRY_STEP             00:01:00
ROUTING_STEP         0.026999999999999996
RULE_STEP            00:00:00

INERTIAL_DAMPING     PARTIAL
NORMAL_FLOW_LIMITED  BOTH
FORCE_MAIN_EQUATION  H-W
VARIABLE_STEP        0.75
LENGTHENING_STEP     0
MIN_SURFAREA         0.00000001
MAX_TRIALS           20
HEAD_TOLERANCE       0.000005
SYS_FLOW_TOL         5
LAT_FLOW_TOL         5
MINIMUM_STEP         0.1
THREADS              1

[FILES]
;;Interfacing Files


[EVAPORATION]
;;Data Source    Parameters
;;-------------- ----------------
CONSTANT         0.0
DRY_ONLY         NO

[JUNCTIONS]
;;Name           Elevation  MaxDepth   InitDepth  SurDepth   Aponded
;;-------------- ---------- ---------- ---------- ---------- ----------
       DN1  99.350000          0          0        100          0
       DN2  99.650000          0          0        100          0
       DN3  96.390000          0          0        100          0
       DN4  96.300000          0          0        100          0
       DN5  96.310000          0          0        100          0
       DN6  95.880000          0          0        100          0
       DN7  96.440000          0          0        100          0
       DN8  96.140000          0          0        100          0
       DN9  96.080000          0          0        100          0
   1-1-DN1 100.250000          0          0        100          0
   1-2-DN1 100.150000          0          0        100          0
   1-3-DN1 100.050000          0          0        100          0
   1-4-DN1  99.950000          0          0        100          0
   1-5-DN1  99.850000          0          0        100          0
   1-6-DN1  99.750000          0          0        100          0
   1-7-DN1  99.650000          0          0        100          0
   1-8-DN1  99.550000          0          0        100          0
   1-9-DN1  99.450000          0          0        100          0
 DN1-1-DN2  99.367173          0          0        100          0
 DN1-2-DN2  99.370846          0          0        100          0
 DN1-3-DN2  99.374519          0          0        100          0
 DN1-4-DN2  99.378192          0          0        100          0
 DN1-5-DN2  99.381865          0          0        100          0
 DN1-6-DN2  99.385538          0          0        100          0
 DN1-7-DN2  99.389212          0          0        100          0
 DN1-8-DN2  99.392885          0          0        100          0
 DN1-9-DN2  99.396558          0          0        100          0
DN1-10-DN2  99.400231          0          0        100          0
DN1-11-DN2  99.403904          0          0        100          0
DN1-12-DN2  99.407577          0          0        100          0
DN1-13-DN2  99.411250          0          0        100          0
DN1-14-DN2  99.414923          0          0        100          0
DN1-15-DN2  99.418596          0          0        100          0
DN1-16-DN2  99.422269          0          0        100          0
DN1-17-DN2  99.425942          0          0        100          0
DN1-18-DN2  99.429615          0          0        100          0
DN1-19-DN2  99.433288          0          0        100          0
DN1-20-DN2  99.436962          0          0        100          0
DN1-21-DN2  99.440635          0          0        100          0
DN1-22-DN2  99.444308          0          0        100          0
DN1-23-DN2  99.447981          0          0        100          0
DN1-24-DN2  99.451654          0          0        100          0
DN1-25-DN2  99.455327          0          0        100          0
DN1-26-DN2  99.459000          0          0        100          0
DN1-27-DN2  99.462673          0          0        100          0
DN1-28-DN2  99.466346          0          0        100          0
DN1-29-DN2  99.470019          0          0        100          0
DN1-30-DN2  99.473692          0          0        100          0
DN1-31-DN2  99.477365          0          0        100          0
DN1-32-DN2  99.481038          0          0        100          0
DN1-33-DN2  99.484712          0          0        100          0
DN1-34-DN2  99.488385          0          0        100          0
DN1-35-DN2  99.492058          0          0        100          0
DN1-36-DN2  99.495731          0          0        100          0
DN1-37-DN2  99.499404          0          0        100          0
DN1-38-DN2  99.503077          0          0        100          0
DN1-39-DN2  99.506750          0          0        100          0
DN1-40-DN2  99.510423          0          0        100          0
DN1-41-DN2  99.514096          0          0        100          0
DN1-42-DN2  99.517769          0          0        100          0
DN1-43-DN2  99.521442          0          0        100          0
DN1-44-DN2  99.525115          0          0        100          0
DN1-45-DN2  99.528788          0          0        100          0
DN1-46-DN2  99.532462          0          0        100          0
DN1-47-DN2  99.536135          0          0        100          0
DN1-48-DN2  99.539808          0          0        100          0
DN1-49-DN2  99.543481          0          0        100          0
DN1-50-DN2  99.547154          0          0        100          0
DN1-51-DN2  99.550827          0          0        100          0
DN1-52-DN2  99.554500          0          0        100          0
DN1-53-DN2  99.558173          0          0        100          0
DN1-54-DN2  99.561846          0          0        100          0
DN1-55-DN2  99.565519          0          0        100          0
DN1-56-DN2  99.569192          0          0        100          0
DN1-57-DN2  99.572865          0          0        100          0
DN1-58-DN2  99.576538          0          0        100          0
DN1-59-DN2  99.580212          0          0        100          0
DN1-60-DN2  99.583885          0          0        100          0
DN1-61-DN2  99.587558          0          0        100          0
DN1-62-DN2  99.591231          0          0        100          0
DN1-63-DN2  99.594904          0          0        100          0
DN1-64-DN2  99.598577          0          0        100          0
DN1-65-DN2  99.602250          0          0        100          0
DN1-66-DN2  99.605923          0          0        100          0
DN1-67-DN2  99.609596          0          0        100          0
DN1-68-DN2  99.613269          0          0        100          0
DN1-69-DN2  99.616942          0          0        100          0
DN1-70-DN2  99.620615          0          0        100          0
DN1-71-DN2  99.624288          0          0        100          0
DN1-72-DN2  99.627962          0          0        100          0
DN1-73-DN2  99.631635          0          0        100          0
DN1-74-DN2  99.635308          0          0        100          0
DN1-75-DN2  99.638981          0          0        100          0
DN1-76-DN2  99.642654          0          0        100          0
DN1-77-DN2  99.646327          0          0        100          0
 DN1-1-DN3  99.054000          0          0        100          0
 DN1-2-DN3  98.758000          0          0        100          0
 DN1-3-DN3  98.462000          0          0        100          0
 DN1-4-DN3  98.166000          0          0        100          0
 DN1-5-DN3  97.870000          0          0        100          0
 DN1-6-DN3  97.574000          0          0        100          0
 DN1-7-DN3  97.278000          0          0        100          0
 DN1-8-DN3  96.982000          0          0        100          0
 DN1-9-DN3  96.686000          0          0        100          0
 DN3-1-DN4  96.383571          0          0        100          0
 DN3-2-DN4  96.377143          0          0        100          0
 DN3-3-DN4  96.370714          0          0        100          0
 DN3-4-DN4  96.364286          0          0        100          0
 DN3-5-DN4  96.357857          0          0        100          0
 DN3-6-DN4  96.351429          0          0        100          0
 DN3-7-DN4  96.345000          0          0        100          0
 DN3-8-DN4  96.338571          0          0        100          0
 DN3-9-DN4  96.332143          0          0        100          0
DN3-10-DN4  96.325714          0          0        100          0
DN3-11-DN4  96.319286          0          0        100          0
DN3-12-DN4  96.312857          0          0        100          0
DN3-13-DN4  96.306429          0          0        100          0
 DN3-1-DN7  96.404140          0          0        100          0
 DN3-2-DN7  96.404781          0          0        100          0
 DN3-3-DN7  96.405421          0          0        100          0
 DN3-4-DN7  96.406061          0          0        100          0
 DN3-5-DN7  96.406702          0          0        100          0
 DN3-6-DN7  96.407342          0          0        100          0
 DN3-7-DN7  96.407982          0          0        100          0
 DN3-8-DN7  96.408623          0          0        100          0
 DN3-9-DN7  96.409263          0          0        100          0
DN3-10-DN7  96.409904          0          0        100          0
DN3-11-DN7  96.410544          0          0        100          0
DN3-12-DN7  96.411184          0          0        100          0
DN3-13-DN7  96.411825          0          0        100          0
DN3-14-DN7  96.412465          0          0        100          0
DN3-15-DN7  96.413105          0          0        100          0
DN3-16-DN7  96.413746          0          0        100          0
DN3-17-DN7  96.414386          0          0        100          0
DN3-18-DN7  96.415026          0          0        100          0
DN3-19-DN7  96.415667          0          0        100          0
DN3-20-DN7  96.416307          0          0        100          0
DN3-21-DN7  96.416947          0          0        100          0
DN3-22-DN7  96.417588          0          0        100          0
DN3-23-DN7  96.418228          0          0        100          0
DN3-24-DN7  96.418868          0          0        100          0
DN3-25-DN7  96.419509          0          0        100          0
DN3-26-DN7  96.420149          0          0        100          0
DN3-27-DN7  96.420789          0          0        100          0
DN3-28-DN7  96.421430          0          0        100          0
DN3-29-DN7  96.422070          0          0        100          0
DN3-30-DN7  96.422711          0          0        100          0
DN3-31-DN7  96.423351          0          0        100          0
DN3-32-DN7  96.423991          0          0        100          0
DN3-33-DN7  96.424632          0          0        100          0
DN3-34-DN7  96.425272          0          0        100          0
DN3-35-DN7  96.425912          0          0        100          0
DN3-36-DN7  96.426553          0          0        100          0
DN3-37-DN7  96.427193          0          0        100          0
DN3-38-DN7  96.427833          0          0        100          0
DN3-39-DN7  96.428474          0          0        100          0
DN3-40-DN7  96.429114          0          0        100          0
DN3-41-DN7  96.429754          0          0        100          0
DN3-42-DN7  96.430395          0          0        100          0
DN3-43-DN7  96.431035          0          0        100          0
DN3-44-DN7  96.431675          0          0        100          0
DN3-45-DN7  96.432316          0          0        100          0
DN3-46-DN7  96.432956          0          0        100          0
DN3-47-DN7  96.433596          0          0        100          0
DN3-48-DN7  96.434237          0          0        100          0
DN3-49-DN7  96.434877          0          0        100          0
DN3-50-DN7  96.435518          0          0        100          0
DN3-51-DN7  96.436158          0          0        100          0
DN3-52-DN7  96.436798          0          0        100          0
DN3-53-DN7  96.437439          0          0        100          0
DN3-54-DN7  96.438079          0          0        100          0
DN3-55-DN7  96.438719          0          0        100          0
DN3-56-DN7  96.439360          0          0        100          0
 DN4-1-DN5  96.307619          0          0        100          0
 DN4-2-DN5  96.307738          0          0        100          0
 DN4-3-DN5  96.307857          0          0        100          0
 DN4-4-DN5  96.307976          0          0        100          0
 DN4-5-DN5  96.308095          0          0        100          0
 DN4-6-DN5  96.308214          0          0        100          0
 DN4-7-DN5  96.308333          0          0        100          0
 DN4-8-DN5  96.308452          0          0        100          0
 DN4-9-DN5  96.308571          0          0        100          0
DN4-10-DN5  96.308690          0          0        100          0
DN4-11-DN5  96.308810          0          0        100          0
DN4-12-DN5  96.308929          0          0        100          0
DN4-13-DN5  96.309048          0          0        100          0
DN4-14-DN5  96.309167          0          0        100          0
DN4-15-DN5  96.309286          0          0        100          0
DN4-16-DN5  96.309405          0          0        100          0
DN4-17-DN5  96.309524          0          0        100          0
DN4-18-DN5  96.309643          0          0        100          0
DN4-19-DN5  96.309762          0          0        100          0
DN4-20-DN5  96.309881          0          0        100          0
 DN4-1-DN8  96.306560          0          0        100          0
 DN4-2-DN8  96.299620          0          0        100          0
 DN4-3-DN8  96.292680          0          0        100          0
 DN4-4-DN8  96.285740          0          0        100          0
 DN4-5-DN8  96.278800          0          0        100          0
 DN4-6-DN8  96.271860          0          0        100          0
 DN4-7-DN8  96.264920          0          0        100          0
 DN4-8-DN8  96.257980          0          0        100          0
 DN4-9-DN8  96.251040          0          0        100          0
DN4-10-DN8  96.244100          0          0        100          0
DN4-11-DN8  96.237160          0          0        100          0
DN4-12-DN8  96.230220          0          0        100          0
DN4-13-DN8  96.223280          0          0        100          0
DN4-14-DN8  96.216340          0          0        100          0
DN4-15-DN8  96.209400          0          0        100          0
DN4-16-DN8  96.202460          0          0        100          0
DN4-17-DN8  96.195520          0          0        100          0
DN4-18-DN8  96.188580          0          0        100          0
DN4-19-DN8  96.181640          0          0        100          0
DN4-20-DN8  96.174700          0          0        100          0
DN4-21-DN8  96.167760          0          0        100          0
DN4-22-DN8  96.160820          0          0        100          0
DN4-23-DN8  96.153880          0          0        100          0
DN4-24-DN8  96.146940          0          0        100          0
 DN5-1-DN6  96.311101          0          0        100          0
 DN5-2-DN6  96.306202          0          0        100          0
 DN5-3-DN6  96.301303          0          0        100          0
 DN5-4-DN6  96.296404          0          0        100          0
 DN5-5-DN6  96.291506          0          0        100          0
 DN5-6-DN6  96.286607          0          0        100          0
 DN5-7-DN6  96.281708          0          0        100          0
 DN5-8-DN6  96.276809          0          0        100          0
 DN5-9-DN6  96.271910          0          0        100          0
DN5-10-DN6  96.267011          0          0        100          0
DN5-11-DN6  96.262112          0          0        100          0
DN5-12-DN6  96.257213          0          0        100          0
DN5-13-DN6  96.252315          0          0        100          0
DN5-14-DN6  96.247416          0          0        100          0
DN5-15-DN6  96.242517          0          0        100          0
DN5-16-DN6  96.237618          0          0        100          0
DN5-17-DN6  96.232719          0          0        100          0
DN5-18-DN6  96.227820          0          0        100          0
DN5-19-DN6  96.222921          0          0        100          0
DN5-20-DN6  96.218022          0          0        100          0
DN5-21-DN6  96.213124          0          0        100          0
DN5-22-DN6  96.208225          0          0        100          0
DN5-23-DN6  96.203326          0          0        100          0
DN5-24-DN6  96.198427          0          0        100          0
DN5-25-DN6  96.193528          0          0        100          0
DN5-26-DN6  96.188629          0          0        100          0
DN5-27-DN6  96.183730          0          0        100          0
DN5-28-DN6  96.178831          0          0        100          0
DN5-29-DN6  96.173933          0          0        100          0
DN5-30-DN6  96.169034          0          0        100          0
DN5-31-DN6  96.164135          0          0        100          0
DN5-32-DN6  96.159236          0          0        100          0
DN5-33-DN6  96.154337          0          0        100          0
DN5-34-DN6  96.149438          0          0        100          0
DN5-35-DN6  96.144539          0          0        100          0
DN5-36-DN6  96.139640          0          0        100          0
DN5-37-DN6  96.134742          0          0        100          0
DN5-38-DN6  96.129843          0          0        100          0
DN5-39-DN6  96.124944          0          0        100          0
DN5-40-DN6  96.120045          0          0        100          0
DN5-41-DN6  96.115146          0          0        100          0
DN5-42-DN6  96.110247          0          0        100          0
DN5-43-DN6  96.105348          0          0        100          0
DN5-44-DN6  96.100449          0          0        100          0
DN5-45-DN6  96.095551          0          0        100          0
DN5-46-DN6  96.090652          0          0        100          0
DN5-47-DN6  96.085753          0          0        100          0
DN5-48-DN6  96.080854          0          0        100          0
DN5-49-DN6  96.075955          0          0        100          0
DN5-50-DN6  96.071056          0          0        100          0
DN5-51-DN6  96.066157          0          0        100          0
DN5-52-DN6  96.061258          0          0        100          0
DN5-53-DN6  96.056360          0          0        100          0
DN5-54-DN6  96.051461          0          0        100          0
DN5-55-DN6  96.046562          0          0        100          0
DN5-56-DN6  96.041663          0          0        100          0
DN5-57-DN6  96.036764          0          0        100          0
DN5-58-DN6  96.031865          0          0        100          0
DN5-59-DN6  96.026966          0          0        100          0
DN5-60-DN6  96.022067          0          0        100          0
DN5-61-DN6  96.017169          0          0        100          0
DN5-62-DN6  96.012270          0          0        100          0
DN5-63-DN6  96.007371          0          0        100          0
DN5-64-DN6  96.002472          0          0        100          0
DN5-65-DN6  95.997573          0          0        100          0
DN5-66-DN6  95.992674          0          0        100          0
DN5-67-DN6  95.987775          0          0        100          0
DN5-68-DN6  95.982876          0          0        100          0
DN5-69-DN6  95.977978          0          0        100          0
DN5-70-DN6  95.973079          0          0        100          0
DN5-71-DN6  95.968180          0          0        100          0
DN5-72-DN6  95.963281          0          0        100          0
DN5-73-DN6  95.958382          0          0        100          0
DN5-74-DN6  95.953483          0          0        100          0
DN5-75-DN6  95.948584          0          0        100          0
DN5-76-DN6  95.943685          0          0        100          0
DN5-77-DN6  95.938787          0          0        100          0
DN5-78-DN6  95.933888          0          0        100          0
DN5-79-DN6  95.928989          0          0        100          0
DN5-80-DN6  95.924090          0          0        100          0
DN5-81-DN6  95.919191          0          0        100          0
DN5-82-DN6  95.914292          0          0        100          0
DN5-83-DN6  95.909393          0          0        100          0
DN5-84-DN6  95.904494          0          0        100          0
DN5-85-DN6  95.899596          0          0        100          0
DN5-86-DN6  95.894697          0          0        100          0
DN5-87-DN6  95.889798          0          0        100          0
DN5-88-DN6  95.884899          0          0        100          0
 DN5-1-DN9  96.309444          0          0        100          0
 DN5-2-DN9  96.302889          0          0        100          0
 DN5-3-DN9  96.296333          0          0        100          0
 DN5-4-DN9  96.289778          0          0        100          0
 DN5-5-DN9  96.283222          0          0        100          0
 DN5-6-DN9  96.276667          0          0        100          0
 DN5-7-DN9  96.270111          0          0        100          0
 DN5-8-DN9  96.263556          0          0        100          0
 DN5-9-DN9  96.257000          0          0        100          0
DN5-10-DN9  96.250444          0          0        100          0
DN5-11-DN9  96.243889          0          0        100          0
DN5-12-DN9  96.237333          0          0        100          0
DN5-13-DN9  96.230778          0          0        100          0
DN5-14-DN9  96.224222          0          0        100          0
DN5-15-DN9  96.217667          0          0        100          0
DN5-16-DN9  96.211111          0          0        100          0
DN5-17-DN9  96.204556          0          0        100          0
DN5-18-DN9  96.198000          0          0        100          0
DN5-19-DN9  96.191444          0          0        100          0
DN5-20-DN9  96.184889          0          0        100          0
DN5-21-DN9  96.178333          0          0        100          0
DN5-22-DN9  96.171778          0          0        100          0
DN5-23-DN9  96.165222          0          0        100          0
DN5-24-DN9  96.158667          0          0        100          0
DN5-25-DN9  96.152111          0          0        100          0
DN5-26-DN9  96.145556          0          0        100          0
DN5-27-DN9  96.139000          0          0        100          0
DN5-28-DN9  96.132444          0          0        100          0
DN5-29-DN9  96.125889          0          0        100          0
DN5-30-DN9  96.119333          0          0        100          0
DN5-31-DN9  96.112778          0          0        100          0
DN5-32-DN9  96.106222          0          0        100          0
DN5-33-DN9  96.099667          0          0        100          0
DN5-34-DN9  96.093111          0          0        100          0
DN5-35-DN9  96.086556          0          0        100          0


[OUTFALLS]
;;Name           Elevation  Type       Stage Data       Gated    Route To
;;-------------- ---------- ---------- ---------------- -------- ----------------
  OutfallDN1      99.35       FREE                    NO
  OutfallDN2      99.65       FREE                    NO
  OutfallDN3      96.39       FREE                    NO
  OutfallDN4      96.30       FREE                    NO
  OutfallDN5      96.31       FREE                    NO
  OutfallDN6      95.88       FREE                    NO
  OutfallDN7      96.44       FREE                    NO
  OutfallDN8      96.14       FREE                    NO
  OutfallDN9      96.08       FREE                    NO
L_OutfallDN1      99.35       FREE                    NO
L_OutfallDN2      99.65       FREE                    NO
L_OutfallDN3      96.39       FREE                    NO
L_OutfallDN4      96.30       FREE                    NO
L_OutfallDN5      96.31       FREE                    NO
L_OutfallDN6      95.88       FREE                    NO
L_OutfallDN7      96.44       FREE                    NO
L_OutfallDN8      96.14       FREE                    NO
L_OutfallDN9      96.08       FREE                    NO


[STORAGE]
;;Name           Elev.    MaxDepth   InitDepth  Shape      Curve Name/Params            N/A      Fevap    Psi      Ksat     IMD
;;-------------- -------- ---------- ----------- ---------- ---------------------------- -------- --------          -------- --------
      Reservoir-1     101.35      140.0      28.65    TABULAR    Source1                                0          0
StorageforNodeDN1      99.35        1.0       0.00 FUNCTIONAL          0          0   0.066667          0          0
StorageforNodeDN2      99.65        1.0       0.00 FUNCTIONAL          0          0   0.066667          0          0
StorageforNodeDN3      96.39        1.0       0.00 FUNCTIONAL          0          0   0.066667          0          0
StorageforNodeDN4      96.30        1.0       0.00 FUNCTIONAL          0          0   0.066667          0          0
StorageforNodeDN5      96.31        1.0       0.00 FUNCTIONAL          0          0   0.066667          0          0
StorageforNodeDN6      95.88        1.0       0.00 FUNCTIONAL          0          0   0.066667          0          0
StorageforNodeDN7      96.44        1.0       0.00 FUNCTIONAL          0          0   0.066667          0          0
StorageforNodeDN8      96.14        1.0       0.00 FUNCTIONAL          0          0   0.066667          0          0
StorageforNodeDN9      96.08        1.0       0.00 FUNCTIONAL          0          0   0.066667          0          0


[CONDUITS]
;;Name           From Node        To Node          Length     Roughness  InOffset   OutOffset  InitFlow   MaxFlow
;;-------------- ---------------- ---------------- ---------- ---------- ---------- ---------- ---------- ----------
      P1-1 Reservoir-1    1-1-DN1   3.000000      0.011     0.0000        0.0          0          0
      P1-2     1-1-DN1    1-2-DN1   3.000000      0.011     0.0000        0.0          0          0
      P1-3     1-2-DN1    1-3-DN1   3.000000      0.011     0.0000        0.0          0          0
      P1-4     1-3-DN1    1-4-DN1   3.000000      0.011     0.0000        0.0          0          0
      P1-5     1-4-DN1    1-5-DN1   3.000000      0.011     0.0000        0.0          0          0
      P1-6     1-5-DN1    1-6-DN1   3.000000      0.011     0.0000        0.0          0          0
      P1-7     1-6-DN1    1-7-DN1   3.000000      0.011     0.0000        0.0          0          0
      P1-8     1-7-DN1    1-8-DN1   3.000000      0.011     0.0000        0.0          0          0
      P1-9     1-8-DN1    1-9-DN1   3.000000      0.011     0.0000        0.0          0          0
     P1-10     1-9-DN1        DN1   3.000000      0.011     0.0000        0.0          0          0
      P2-1         DN1  DN1-1-DN2   1.923077      0.011     0.0135        0.0          0          0
      P2-2   DN1-1-DN2  DN1-2-DN2   1.923077      0.011     0.0000        0.0          0          0
      P2-3   DN1-2-DN2  DN1-3-DN2   1.923077      0.011     0.0000        0.0          0          0
      P2-4   DN1-3-DN2  DN1-4-DN2   1.923077      0.011     0.0000        0.0          0          0
      P2-5   DN1-4-DN2  DN1-5-DN2   1.923077      0.011     0.0000        0.0          0          0
      P2-6   DN1-5-DN2  DN1-6-DN2   1.923077      0.011     0.0000        0.0          0          0
      P2-7   DN1-6-DN2  DN1-7-DN2   1.923077      0.011     0.0000        0.0          0          0
      P2-8   DN1-7-DN2  DN1-8-DN2   1.923077      0.011     0.0000        0.0          0          0
      P2-9   DN1-8-DN2  DN1-9-DN2   1.923077      0.011     0.0000        0.0          0          0
     P2-10   DN1-9-DN2 DN1-10-DN2   1.923077      0.011     0.0000        0.0          0          0
     P2-11  DN1-10-DN2 DN1-11-DN2   1.923077      0.011     0.0000        0.0          0          0
     P2-12  DN1-11-DN2 DN1-12-DN2   1.923077      0.011     0.0000        0.0          0          0
     P2-13  DN1-12-DN2 DN1-13-DN2   1.923077      0.011     0.0000        0.0          0          0
     P2-14  DN1-13-DN2 DN1-14-DN2   1.923077      0.011     0.0000        0.0          0          0
     P2-15  DN1-14-DN2 DN1-15-DN2   1.923077      0.011     0.0000        0.0          0          0
     P2-16  DN1-15-DN2 DN1-16-DN2   1.923077      0.011     0.0000        0.0          0          0
     P2-17  DN1-16-DN2 DN1-17-DN2   1.923077      0.011     0.0000        0.0          0          0
     P2-18  DN1-17-DN2 DN1-18-DN2   1.923077      0.011     0.0000        0.0          0          0
     P2-19  DN1-18-DN2 DN1-19-DN2   1.923077      0.011     0.0000        0.0          0          0
     P2-20  DN1-19-DN2 DN1-20-DN2   1.923077      0.011     0.0000        0.0          0          0
     P2-21  DN1-20-DN2 DN1-21-DN2   1.923077      0.011     0.0000        0.0          0          0
     P2-22  DN1-21-DN2 DN1-22-DN2   1.923077      0.011     0.0000        0.0          0          0
     P2-23  DN1-22-DN2 DN1-23-DN2   1.923077      0.011     0.0000        0.0          0          0