[TITLE]
;;Project Title/Notes

[OPTIONS]
;;Option             Value
FLOW_UNITS           LPS
INFILTRATION         HORTON
FLOW_ROUTING         DYNWAVE
LINK_OFFSETS         DEPTH
MIN_SLOPE            0
ALLOW_PONDING        NO
SKIP_STEADY_STATE    NO

START_DATE           05/18/2022
START_TIME           00:00:00
REPORT_START_DATE    05/18/2022
REPORT_START_TIME    00:00:00
END_DATE             05/18/2022
END_TIME             23:59:00
SWEEP_START          01/01
SWEEP_END            12/31
DRY_DAYS             0
REPORT_STEP          01:00:00
WET_STEP             00:01:00
DRY_STEP             00:01:00
ROUTING_STEP         0.5
RULE_STEP            00:00:00

INERTIAL_DAMPING     PARTIAL
NORMAL_FLOW_LIMITED  BOTH
FORCE_MAIN_EQUATION  H-W
VARIABLE_STEP        0.00
LENGTHENING_STEP     0
MIN_SURFAREA         0.00000001
MAX_TRIALS           20
HEAD_TOLERANCE       0.000005
SYS_FLOW_TOL         5
LAT_FLOW_TOL         5
MINIMUM_STEP         0.1
THREADS              1

[EVAPORATION]
;;Data Source    Parameters
;;-------------- ----------------
CONSTANT         0.0
DRY_ONLY         NO

[JUNCTIONS]
;;Name           Elevation  MaxDepth   InitDepth  SurDepth   Aponded   
;;-------------- ---------- ---------- ---------- ---------- ----------
1                39.490000  0          0          100        0         
2                39.620000  0          0          100        0         
3                38.700000  0          0          100        0         
4                37.250000  0          0          100        0         
5                36.270000  0          0          100        0         
6                35.950000  0          0          100        0         
7                35.950000  0          0          100        0         
8                36.090000  0          0          100        0         
9                36.180000  0          0          100        0         
10               37.000000  0          0          100        0         
11               36.500000  0          0          100        0         
12               37.390000  0          0          100        0         
13               38.070000  0          0          100        0         
14               37.020000  0          0          100        0         
15               41.260000  0          0          100        0         
16               39.350000  0          0          100        0         
17               39.530000  0          0          100        0         
18               36.590000  0          0          100        0         
19               36.760000  0          0          100        0         
20               37.720000  0          0          100        0         
21               37.310000  0          0          100        0         
22               37.620000  0          0          100        0         
23               36.990000  0          0          100        0         
24               35.200000  0          0          100        0         
25               35.110000  0          0          100        0         
26               34.650000  0          0          100        0         
27               34.330000  0          0          100        0         
28               36.150000  0          0          100        0         
29               36.300000  0          0          100        0         
30               36.100000  0          0          100        0         
31               36.140000  0          0          100        0         
32               35.800000  0          0          100        0         
33               33.260000  0          0          100        0         
34               33.340000  0          0          100        0         
35               33.510000  0          0          100        0         
36               32.700000  0          0          100        0         
37               32.650000  0          0          100        0         
38               32.560000  0          0          100        0         
39               33.560000  0          0          100        0         
40               31.590000  0          0          100        0         
41               31.380000  0          0          100        0         
42               32.670000  0          0          100        0         
43               33.500000  0          0          100        0         
44               33.570000  0          0          100        0         
45               33.770000  0          0          100        0         
46               34.140000  0          0          100        0         
47               33.680000  0          0          100        0         
48               33.710000  0          0          100        0         
49               31.680000  0          0          100        0         
50               33.340000  0          0          100        0         
51               32.830000  0          0          100        0         
53               39.280000  0          0          100        0         
54               37.120000  0          0          100        0         
55               36.480000  0          0          100        0         
56               36.420000  0          0          100        0         
57               36.130000  0          0          100        0         
58               36.050000  0          0          100        0         
59               36.770000  0          0          100        0         
60               35.480000  0          0          100        0         
61               35.050000  0          0          100        0         
62               35.100000  0          0          100        0         
63               37.950000  0          0          100        0         
64               38.440000  0          0          100        0         
65               37.810000  0          0          100        0         
66               38.220000  0          0          100        0         
67               38.730000  0          0          100        0         
68               38.950000  0          0          100        0         
69               39.700000  0          0          100        0         
70               40.590000  0          0          100        0         
71               40.810000  0          0          100        0         
72               41.060000  0          0          100        0         
73               41.450000  0          0          100        0         
74               41.830000  0          0          100        0         
75               41.440000  0          0          100        0         
76               41.090000  0          0          100        0         
77               40.740000  0          0          100        0         
78               38.600000  0          0          100        0         
79               36.910000  0          0          100        0         
80               36.750000  0          0          100        0         
81               36.810000  0          0          100        0         
82               37.050000  0          0          100        0         
83               35.880000  0          0          100        0         
84               36.450000  0          0          100        0         
85               36.160000  0          0          100        0         
86               34.990000  0          0          100        0         
87               35.610000  0          0          100        0         
88               34.890000  0          0          100        0         
89               35.590000  0          0          100        0         
90               35.700000  0          0          100        0         
91               35.200000  0          0          100        0         
92               35.640000  0          0          100        0         
93               35.930000  0          0          100        0         
94               37.640000  0          0          100        0         
95               37.170000  0          0          100        0         
96               37.100000  0          0          100        0         
97               36.970000  0          0          100        0         
98               37.000000  0          0          100        0         
99               36.740000  0          0          100        0         
100              34.780000  0          0          100        0         
101              34.260000  0          0          100        0         
102              33.660000  0          0          100        0         
103              33.780000  0          0          100        0         
104              33.750000  0          0          100        0         
105              33.380000  0          0          100        0         
106              34.850000  0          0          100        0         
107              34.270000  0          0          100        0         
108              34.300000  0          0          100        0         
109              33.950000  0          0          100        0         
110              33.920000  0          0          100        0         
111              32.320000  0          0          100        0         
112              34.760000  0          0          100        0         
113              34.210000  0          0          100        0         
114              34.920000  0          0          100        0         
115              32.960000  0          0          100        0         
116              30.690000  0          0          100        0         
117              30.590000  0          0          100        0         
118              30.730000  0          0          100        0         
119              30.700000  0          0          100        0         
120              31.020000  0          0          100        0         
121              31.030000  0          0          100        0         
122              31.750000  0          0          100        0         
123              32.000000  0          0          100        0         
124              32.050000  0          0          100        0         
125              32.100000  0          0          100        0         
126              33.760000  0          0          100        0         
127              32.270000  0          0          100        0         
128              31.860000  0          0          100        0         
129              32.420000  0          0          100        0         
130              33.000000  0          0          100        0         
131              33.630000  0          0          100        0         
132              36.370000  0          0          100        0         
133              35.690000  0          0          100        0         
134              35.520000  0          0          100        0         
135              35.560000  0          0          100        0         
136              35.920000  0          0          100        0         
137              35.370000  0          0          100        0         
138              35.060000  0          0          100        0         
139              34.120000  0          0          100        0         
140              39.350000  0          0          100        0         
141              39.100000  0          0          100        0         
142              39.840000  0          0          100        0         
143              39.840000  0          0          100        0         
144              39.450000  0          0          100        0         
145              39.700000  0          0          100        0         
146              37.950000  0          0          100        0         
147              37.610000  0          0          100        0         
148              37.950000  0          0          100        0         
149              35.690000  0          0          100        0         
150              35.320000  0          0          100        0         
151              35.810000  0          0          100        0         
152              35.810000  0          0          100        0         
153              36.020000  0          0          100        0         
154              38.250000  0          0          100        0         
155              37.500000  0          0          100        0         
156              37.540000  0          0          100        0         
157              37.080000  0          0          100        0         
158              36.760000  0          0          100        0         
159              35.880000  0          0          100        0         
160              35.770000  0          0          100        0         
161              34.700000  0          0          100        0         
162              35.370000  0          0          100        0         
163              34.990000  0          0          100        0         
164              35.930000  0          0          100        0         
165              36.270000  0          0          100        0         
166              32.670000  0          0          100        0         
167              32.750000  0          0          100        0         
168              32.880000  0          0          100        0         
169              34.090000  0          0          100        0         
170              36.090000  0          0          100        0         
171              36.050000  0          0          100        0         
172              36.040000  0          0          100        0         
173              36.020000  0          0          100        0         
174              31.760000  0          0          100        0         
175              31.910000  0          0          100        0         
176              31.800000  0          0          100        0         
177              31.480000  0          0          100        0         
178              31.120000  0          0          100        0         
179              31.100000  0          0          100        0         
180              31.190000  0          0          100        0         
181              30.390000  0          0          100        0         
182              30.550000  0          0          100        0         
183              31.130000  0          0          100        0         
184              31.810000  0          0          100        0         
185              32.340000  0          0          100        0         
186              32.830000  0          0          100        0         
187              33.690000  0          0          100        0         
188              33.170000  0          0          100        0         
189              33.230000  0          0          100        0         
190              33.340000  0          0          100        0         
191              33.770000  0          0          100        0         
192              33.770000  0          0          100        0         
193              32.200000  0          0          100        0         
194              34.410000  0          0          100        0         
195              33.390000  0          0          100        0         
196              34.340000  0          0          100        0         
197              35.030000  0          0          100        0         
198              34.440000  0          0          100        0         
199              34.530000  0          0          100        0         
200              34.940000  0          0          100        0         
201              34.700000  0          0          100        0         
202              36.700000  0          0          100        0         
203              36.200000  0          0          100        0         
204              35.030000  0          0          100        0         
205              36.770000  0          0          100        0         
206              36.200000  0          0          100        0         
207              37.880000  0          0          100        0         
208              38.030000  0          0          100        0         
210              37.240000  0          0          100        0         
211              36.660000  0          0          100        0         
212              36.490000  0          0          100        0         
213              37.300000  0          0          100        0         
214              40.300000  0          0          100        0         
215              39.850000  0          0          100        0         
216              41.000000  0          0          100        0         
217              41.160000  0          0          100        0         
218              35.050000  0          0          100        0         
219              33.920000  0          0          100        0         
220              32.140000  0          0          100        0         
221              34.170000  0          0          100        0         
222              35.100000  0          0          100        0         
223              31.550000  0          0          100        0         
224              31.750000  0          0          100        0         
225              32.070000  0          0          100        0         
226              31.940000  0          0          100        0         
227              31.660000  0          0          100        0         
228              31.040000  0          0          100        0         
229              31.050000  0          0          100        0         
230              38.490000  0          0          100        0         
231              35.680000  0          0          100        0         
232              35.390000  0          0          100        0         
233              34.890000  0          0          100        0         
234              34.860000  0          0          100        0         
235              34.990000  0          0          100        0         
236              32.540000  0          0          100        0         
237              34.410000  0          0          100        0         
238              36.160000  0          0          100        0         
239              35.300000  0          0          100        0         
240              35.170000  0          0          100        0         
241              32.920000  0          0          100        0         
242              33.070000  0          0          100        0         
243              31.910000  0          0          100        0         
244              32.000000  0          0          100        0         
245              32.050000  0          0          100        0         
246              32.050000  0          0          100        0         
247              30.700000  0          0          100        0         
248              31.330000  0          0          100        0         
249              36.300000  0          0          100        0         
250              35.830000  0          0          100        0         
251              36.950000  0          0          100        0         
252              38.010000  0          0          100        0         
253              36.650000  0          0          100        0         
254              36.910000  0          0          100        0         
255              36.770000  0          0          100        0         
256              31.500000  0          0          100        0         
257              38.650000  0          0          100        0         
258              39.540000  0          0          100        0         
259              39.580000  0          0          100        0         
260              39.580000  0          0          100        0         
261              40.550000  0          0          100        0         
262              40.790000  0          0          100        0         
263              40.950000  0          0          100        0         
264              37.760000  0          0          100        0         
265              35.960000  0          0          100        0         
266              36.810000  0          0          100        0         
267              36.210000  0          0          100        0         
268              35.610000  0          0          100        0         
16-1-2           39.405417  0          0          100        0         
16-2-2           39.448333  0          0          100        0         
16-3-2           39.491250  0          0          100        0         
16-4-2           39.534167  0          0          100        0         
16-5-2           39.577083  0          0          100        0         
2-1-3            39.536364  0          0          100        0         
2-2-3            39.452727  0          0          100        0         
2-3-3            39.369091  0          0          100        0         
2-4-3            39.285455  0          0          100        0         
2-5-3            39.201818  0          0          100        0         
2-6-3            39.118182  0          0          100        0         
2-7-3            39.034545  0          0          100        0         
2-8-3            38.950909  0          0          100        0         
2-9-3            38.867273  0          0          100        0         
2-10-3           38.783636  0          0          100        0         
3-1-4            38.570455  0          0          100        0         
3-2-4            38.440909  0          0          100        0         
3-3-4            38.311364  0          0          100        0         
3-4-4            38.181818  0          0          100        0         
3-5-4            38.052273  0          0          100        0         
3-6-4            37.922727  0          0          100        0         
3-7-4            37.793182  0          0          100        0         
3-8-4            37.663636  0          0          100        0         
3-9-4            37.534091  0          0          100        0         
3-10-4           37.404545  0          0          100        0         
4-1-5            37.163333  0          0          100        0         
4-2-5            37.051667  0          0          100        0         
4-3-5            36.940000  0          0          100        0         
4-4-5            36.828333  0          0          100        0         
4-5-5            36.716667  0          0          100        0         
4-6-5            36.605000  0          0          100        0         
4-7-5            36.493333  0          0          100        0         
4-8-5            36.381667  0          0          100        0         
5-1-206          36.252500  0          0          100        0         
5-2-206          36.235000  0          0          100        0         
5-3-206          36.217500  0          0          100        0         
206-1-6          36.166071  0          0          100        0         
206-2-6          36.132143  0          0          100        0         
206-3-6          36.098214  0          0          100        0         
206-4-6          36.064286  0          0          100        0         
206-5-6          36.030357  0          0          100        0         
206-6-6          35.996429  0          0          100        0         
140-1-143        39.431667  0          0          100        0         
140-2-143        39.513333  0          0          100        0         
140-3-143        39.595000  0          0          100        0         
140-4-143        39.676667  0          0          100        0         
140-5-143        39.758333  0          0          100        0         
145-1-146        39.602778  0          0          100        0         
145-2-146        39.505556  0          0          100        0         
145-3-146        39.408333  0          0          100        0         
145-4-146        39.311111  0          0          100        0         
145-5-146        39.213889  0          0          100        0         
145-6-146        39.116667  0          0          100        0         
145-7-146        39.019444  0          0          100        0         
145-8-146        38.922222  0          0          100        0         
145-9-146        38.825000  0          0          100        0         
145-10-146       38.727778  0          0          100        0         
145-11-146       38.630556  0          0          100        0         
145-12-146       38.533333  0          0          100        0         
145-13-146       38.436111  0          0          100        0         
145-14-146       38.338889  0          0          100        0         
145-15-146       38.241667  0          0          100        0         
145-16-146       38.144444  0          0          100        0         
145-17-146       38.047222  0          0          100        0         
63-1-149         37.678438  0          0          100        0         
63-2-149         37.394375  0          0          100        0         
63-3-149         37.110313  0          0          100        0         
63-4-149         36.826250  0          0          100        0         
63-5-149         36.542187  0          0          100        0         
63-6-149         36.258125  0          0          100        0         
63-7-149         35.974063  0          0          100        0         
149-1-150        35.505000  0          0          100        0         
150-1-60         35.353571  0          0          100        0         
150-2-60         35.374643  0          0          100        0         
150-3-60         35.395714  0          0          100        0         
150-4-60         35.416786  0          0          100        0         
150-5-60         35.437857  0          0          100        0         
150-6-60         35.458929  0          0          100        0         
60-1-61          35.426250  0          0          100        0         
60-2-61          35.372500  0          0          100        0         
60-3-61          35.318750  0          0          100        0         
60-4-61          35.265000  0          0          100        0         
60-5-61          35.211250  0          0          100        0         
60-6-61          35.157500  0          0          100        0         
60-7-61          35.103750  0          0          100        0         
61-1-218         35.050000  0          0          100        0         
61-2-218         35.050000  0          0          100        0         
61-3-218         35.050000  0          0          100        0         
1-1-141          39.307500  0          0          100        0         
141-1-142        39.248000  0          0          100        0         
141-2-142        39.396000  0          0          100        0         
141-3-142        39.544000  0          0          100        0         
141-4-142        39.692000  0          0          100        0         
144-1-257        39.400000  0          0          100        0         
144-2-257        39.350000  0          0          100        0         
144-3-257        39.300000  0          0          100        0         
144-4-257        39.250000  0          0          100        0         
144-5-257        39.200000  0          0          100        0         
144-6-257        39.150000  0          0          100        0         
144-7-257        39.100000  0          0          100        0         
144-8-257        39.050000  0          0          100        0         
144-9-257        39.000000  0          0          100        0         
144-10-257       38.950000  0          0          100        0         
144-11-257       38.900000  0          0          100        0         
144-12-257       38.850000  0          0          100        0         
144-13-257       38.800000  0          0          100        0         
144-14-257       38.750000  0          0          100        0         
144-15-257       38.700000  0          0          100        0         
257-1-53         38.806000  0          0          100        0         
257-2-53         38.924500  0          0          100        0         
257-3-53         39.043000  0          0          100        0         
257-4-53         39.161500  0          0          100        0         
53-1-251         38.902083  0          0          100        0         
53-2-251         38.511667  0          0          100        0         
53-3-251         38.121250  0          0          100        0         
53-4-251         37.730833  0          0          100        0         
53-5-251         37.340417  0          0          100        0         
251-1-57         36.676667  0          0          100        0         
251-2-57         36.403333  0          0          100        0         
57-1-58          36.090000  0          0          100        0         
58-1-59          36.110000  0          0          100        0         
58-2-59          36.170000  0          0          100        0         
58-3-59          36.230000  0          0          100        0         
58-4-59          36.290000  0          0          100        0         
58-5-59          36.350000  0          0          100        0         
58-6-59          36.410000  0          0          100        0         
58-7-59          36.470000  0          0          100        0         
58-8-59          36.530000  0          0          100        0         
58-9-59          36.590000  0          0          100        0         
58-10-59         36.650000  0          0          100        0         
58-11-59         36.710000  0          0          100        0         
53-1-230         39.091875  0          0          100        0         
53-2-230         38.891250  0          0          100        0         