[TITLE]
;;Project Title/Notes

[OPTIONS]
;;Option             Value
FLOW_UNITS           LPS
INFILTRATION         HORTON
FLOW_ROUTING         DYNWAVE
LINK_OFFSETS         DEPTH
MIN_SLOPE            0
ALLOW_PONDING        NO
SKIP_STEADY_STATE    NO

START_DATE           05/18/2022
START_TIME           00:00:00
REPORT_START_DATE    05/18/2022
REPORT_START_TIME    00:00:00
END_DATE             05/18/2022
END_TIME             23:59:00
SWEEP_START          01/01
SWEEP_END            12/31
DRY_DAYS             0
REPORT_STEP          00:00:10
WET_STEP             00:01:00
DRY_STEP             00:01:00
ROUTING_STEP         0:00:01 
RULE_STEP            00:00:00

INERTIAL_DAMPING     PARTIAL
NORMAL_FLOW_LIMITED  BOTH
FORCE_MAIN_EQUATION  H-W
VARIABLE_STEP        0.75
LENGTHENING_STEP     0
MIN_SURFAREA         0.00000001
MAX_TRIALS           20
HEAD_TOLERANCE       0.000005
SYS_FLOW_TOL         5
LAT_FLOW_TOL         5
MINIMUM_STEP         0.1
THREADS              1

[EVAPORATION]
;;Data Source    Parameters
;;-------------- ----------------
CONSTANT         0.0
DRY_ONLY         NO

[JUNCTIONS]
;;Name           Elevation  MaxDepth   InitDepth  SurDepth   Aponded   
;;-------------- ---------- ---------- ---------- ---------- ----------
1                2.900000   0          0          100        0         
2                5.000000   0          0          100        0         
3                3.500000   0          0          100        0         
4                3.800000   0          0          100        0         
5                2.200000   0          0          100        0         
6                7.000000   0          0          100        0         
7                6.500000   0          0          100        0         
8                5.200000   0          0          100        0         
9                4.300000   0          0          100        0         
10               5.200000   0          0          100        0         
11               28.000000  0          0          100        0         
12               3.200000   0          0          100        0         
13               3.200000   0          0          100        0         
14               19.200000  0          0          100        0         
18               3.500000   0          0          100        0         
19               2.800000   0          0          100        0         
20               2.700000   0          0          100        0         
21               1.800000   0          0          100        0         
22               2.100000   0          0          100        0         
23               2.000000   0          0          100        0         
24               18.700000  0          0          100        0         
25               3.200000   0          0          100        0         
26               1.600000   0          0          100        0         
27               3.800000   0          0          100        0         
28               4.300000   0          0          100        0         
29               3.600000   0          0          100        0         
30               3.200000   0          0          100        0         
31               2.800000   0          0          100        0         
33               3.800000   0          0          100        0         
34               2.900000   0          0          100        0         
35               3.700000   0          0          100        0         
36               2.100000   0          0          100        0         
37               6.700000   0          0          100        0         
38               6.700000   0          0          100        0         
39               4.200000   0          0          100        0         
40               2.900000   0          0          100        0         
41               2.900000   0          0          100        0         
42               28.500000  0          0          100        0         
44               27.300000  0          0          100        0         
45               1.100000   0          0          100        0         
46               2.500000   0          0          100        0         
47               2.800000   0          0          100        0         
48               3.300000   0          0          100        0         
49               1.800000   0          0          100        0         
50               1.800000   0          0          100        0         
51               1.600000   0          0          100        0         
52               1.800000   0          0          100        0         
53               1.600000   0          0          100        0         
54               3.300000   0          0          100        0         
55               2.500000   0          0          100        0         
56               2.800000   0          0          100        0         
57               3.200000   0          0          100        0         
58               3.600000   0          0          100        0         
59               3.800000   0          0          100        0         
60               3.100000   0          0          100        0         
61               3.000000   0          0          100        0         
62               4.200000   0          0          100        0         
76               4.200000   0          0          100        0         
83               2.100000   0          0          100        0         
84               3.300000   0          0          100        0         
85               2.100000   0          0          100        0         
86               1.500000   0          0          100        0         
87               19.200000  0          0          100        0         
88               2.100000   0          0          100        0         
89               1.500000   0          0          100        0         
1-1-2            3.121250   0          0          100        0         
1-2-2            3.330000   0          0          100        0         
1-3-2            3.538750   0          0          100        0         
1-4-2            3.747500   0          0          100        0         
1-5-2            3.956250   0          0          100        0         
1-6-2            4.165000   0          0          100        0         
1-7-2            4.373750   0          0          100        0         
1-8-2            4.582500   0          0          100        0         
1-9-2            4.791250   0          0          100        0         
3-1-4            3.565000   0          0          100        0         
3-2-4            3.630000   0          0          100        0         
3-3-4            3.695000   0          0          100        0         
3-4-4            3.760000   0          0          100        0         
3-1-5            3.437500   0          0          100        0         
3-2-5            3.350000   0          0          100        0         
3-3-5            3.262500   0          0          100        0         
3-4-5            3.175000   0          0          100        0         
3-5-5            3.087500   0          0          100        0         
3-6-5            3.000000   0          0          100        0         
3-7-5            2.912500   0          0          100        0         
3-8-5            2.825000   0          0          100        0         
3-9-5            2.737500   0          0          100        0         
3-10-5           2.650000   0          0          100        0         
3-11-5           2.562500   0          0          100        0         
3-12-5           2.475000   0          0          100        0         
3-13-5           2.387500   0          0          100        0         
3-14-5           2.300000   0          0          100        0         
3-1-1            3.308333   0          0          100        0         
3-2-1            3.104167   0          0          100        0         
6-1-7            6.750000   0          0          100        0         
6-1-8            6.425000   0          0          100        0         
6-2-8            5.850000   0          0          100        0         
9-1-6            4.412500   0          0          100        0         
9-2-6            4.525000   0          0          100        0         
9-3-6            4.637500   0          0          100        0         
9-4-6            4.750000   0          0          100        0         
9-5-6            4.862500   0          0          100        0         
9-6-6            4.975000   0          0          100        0         
9-7-6            5.087500   0          0          100        0         
9-8-6            5.200000   0          0          100        0         
9-9-6            5.312500   0          0          100        0         
9-10-6           5.425000   0          0          100        0         
9-11-6           5.537500   0          0          100        0         
9-12-6           5.650000   0          0          100        0         
9-13-6           5.762500   0          0          100        0         
9-14-6           5.875000   0          0          100        0         
9-15-6           5.987500   0          0          100        0         
9-16-6           6.100000   0          0          100        0         
9-17-6           6.212500   0          0          100        0         
9-18-6           6.325000   0          0          100        0         
9-19-6           6.437500   0          0          100        0         
9-20-6           6.550000   0          0          100        0         
9-21-6           6.662500   0          0          100        0         
9-22-6           6.775000   0          0          100        0         
9-23-6           6.887500   0          0          100        0         
10-1-11          6.723333   0          0          100        0         
10-2-11          8.246667   0          0          100        0         
10-3-11          9.770000   0          0          100        0         
10-4-11          11.293333  0          0          100        0         
10-5-11          12.816667  0          0          100        0         
10-6-11          14.340000  0          0          100        0         
10-7-11          15.863333  0          0          100        0         
10-8-11          17.386667  0          0          100        0         
10-9-11          18.910000  0          0          100        0         
10-10-11         20.433333  0          0          100        0         
10-11-11         21.956667  0          0          100        0         
10-12-11         23.480000  0          0          100        0         
10-13-11         25.003333  0          0          100        0         
10-14-11         26.526667  0          0          100        0         
13-1-26          2.941667   0          0          100        0         
13-2-26          2.683333   0          0          100        0         
13-3-26          2.425000   0          0          100        0         
13-4-26          2.166667   0          0          100        0         
13-5-26          1.908333   0          0          100        0         
18-1-13          3.457143   0          0          100        0         
18-2-13          3.414286   0          0          100        0         
18-3-13          3.371429   0          0          100        0         
18-4-13          3.328571   0          0          100        0         
18-5-13          3.285714   0          0          100        0         
18-6-13          3.242857   0          0          100        0         
18-1-19          3.325000   0          0          100        0         
18-2-19          3.150000   0          0          100        0         
18-3-19          2.975000   0          0          100        0         
20-1-18          2.921875   0          0          100        0         
20-2-18          3.131250   0          0          100        0         
20-3-18          3.340625   0          0          100        0         
21-1-20          1.982500   0          0          100        0         
21-2-20          2.165000   0          0          100        0         
21-3-20          2.347500   0          0          100        0         
21-4-20          2.530000   0          0          100        0         
22-1-23          2.066667   0          0          100        0         
22-2-23          2.033333   0          0          100        0         
24-1-25          17.217500  0          0          100        0         
24-2-25          15.660000  0          0          100        0         
24-3-25          14.102500  0          0          100        0         
24-4-25          12.545000  0          0          100        0         
24-5-25          10.987500  0          0          100        0         
24-6-25          9.430000   0          0          100        0         
24-7-25          7.872500   0          0          100        0         
24-8-25          6.315000   0          0          100        0         
24-9-25          4.757500   0          0          100        0         
14-1-24          18.950000  0          0          100        0         
24-1-26          13.016667  0          0          100        0         
24-2-26          7.308333   0          0          100        0         
26-1-27          2.187500   0          0          100        0         
26-2-27          2.725000   0          0          100        0         
26-3-27          3.262500   0          0          100        0         
21-1-22          1.837500   0          0          100        0         
21-2-22          1.875000   0          0          100        0         
21-3-22          1.912500   0          0          100        0         
21-4-22          1.950000   0          0          100        0         
21-5-22          1.987500   0          0          100        0         
21-6-22          2.025000   0          0          100        0         
21-7-22          2.062500   0          0          100        0         
23-1-21          1.971429   0          0          100        0         
23-2-21          1.942857   0          0          100        0         
23-3-21          1.914286   0          0          100        0         
23-4-21          1.885714   0          0          100        0         
23-5-21          1.857143   0          0          100        0         
23-6-21          1.828571   0          0          100        0         
27-1-23          3.480000   0          0          100        0         
27-2-23          3.110000   0          0          100        0         
27-3-23          2.740000   0          0          100        0         
27-4-23          2.370000   0          0          100        0         
20-1-27          2.826389   0          0          100        0         
20-2-27          2.952778   0          0          100        0         
20-3-27          3.079167   0          0          100        0         
20-4-27          3.205556   0          0          100        0         
20-5-27          3.331944   0          0          100        0         
20-6-27          3.458333   0          0          100        0         
20-7-27          3.584722   0          0          100        0         
20-8-27          3.711111   0          0          100        0         
19-1-20          2.830357   0          0          100        0         
19-2-20          2.810714   0          0          100        0         
19-3-20          2.791071   0          0          100        0         
19-4-20          2.771429   0          0          100        0         
19-5-20          2.751786   0          0          100        0         
19-6-20          2.732143   0          0          100        0         
28-1-29          3.962500   0          0          100        0         
28-1-30          4.137500   0          0          100        0         
28-2-30          3.950000   0          0          100        0         
28-3-30          3.762500   0          0          100        0         
28-4-30          3.575000   0          0          100        0         
28-5-30          3.387500   0          0          100        0         
30-1-28          3.387500   0          0          100        0         
30-2-28          3.575000   0          0          100        0         
30-3-28          3.762500   0          0          100        0         
30-4-28          3.950000   0          0          100        0         
30-5-28          4.137500   0          0          100        0         
31-1-49          2.475000   0          0          100        0         
31-2-49          2.137500   0          0          100        0         
30-1-33          3.320000   0          0          100        0         
30-2-33          3.440000   0          0          100        0         
30-3-33          3.560000   0          0          100        0         
30-4-33          3.680000   0          0          100        0         
34-1-30          2.937500   0          0          100        0         
34-2-30          2.975000   0          0          100        0         
34-3-30          3.012500   0          0          100        0         
34-4-30          3.050000   0          0          100        0         
34-5-30          3.087500   0          0          100        0         
34-6-30          3.125000   0          0          100        0         
34-7-30          3.162500   0          0          100        0         
35-1-36          3.566667   0          0          100        0         
35-2-36          3.433333   0          0          100        0         
35-3-36          3.300000   0          0          100        0         
35-4-36          3.166667   0          0          100        0         
35-5-36          3.033333   0          0          100        0         
35-6-36          2.900000   0          0          100        0         
35-7-36          2.766667   0          0          100        0         
35-8-36          2.633333   0          0          100        0         
35-9-36          2.500000   0          0          100        0         
35-10-36         2.366667   0          0          100        0         
35-11-36         2.233333   0          0          100        0         
31-1-11          4.075625   0          0          100        0         
31-2-11          5.338750   0          0          100        0         
31-3-11          6.601875   0          0          100        0         
31-4-11          7.865000   0          0          100        0         
31-5-11          9.128125   0          0          100        0         
31-6-11          10.391250  0          0          100        0         
31-7-11          11.654375  0          0          100        0         
31-8-11          12.917500  0          0          100        0         
31-9-11          14.180625  0          0          100        0         
31-10-11         15.443750  0          0          100        0         
31-11-11         16.706875  0          0          100        0         
31-12-11         17.970000  0          0          100        0         
31-13-11         19.233125  0          0          100        0         
31-14-11         20.496250  0          0          100        0         
31-15-11         21.759375  0          0          100        0         
31-16-11         23.022500  0          0          100        0         
31-17-11         24.285625  0          0          100        0         
31-18-11         25.548750  0          0          100        0         
31-19-11         26.811875  0          0          100        0         
37-1-31          4.768750   0          0          100        0         
37-1-38          6.700000   0          0          100        0         
40-1-39          3.170000   0          0          100        0         
40-2-39          3.440000   0          0          100        0         
40-3-39          3.710000   0          0          100        0         
40-4-39          3.980000   0          0          100        0         
9-1-40           4.066667   0          0          100        0         
9-2-40           3.833333   0          0          100        0         
9-3-40           3.600000   0          0          100        0         
9-4-40           3.366667   0          0          100        0         
9-5-40           3.133333   0          0          100        0         
33-1-9           3.925000   0          0          100        0         
33-2-9           4.050000   0          0          100        0         
33-3-9           4.175000   0          0          100        0         
41-1-33          3.050000   0          0          100        0         
41-2-33          3.200000   0          0          100        0         
41-3-33          3.350000   0          0          100        0         
41-4-33          3.500000   0          0          100        0         
41-5-33          3.650000   0          0          100        0         
39-1-34          3.912500   0          0          100        0         
39-2-34          3.575000   0          0          100        0         
39-3-34          3.237500   0          0          100        0         
12-1-39          3.276923   0          0          100        0         
12-2-39          3.353846   0          0          100        0         
12-3-39          3.430769   0          0          100        0         
12-4-39          3.507692   0          0          100        0         
12-5-39          3.584615   0          0          100        0         
12-6-39          3.661538   0          0          100        0         
12-7-39          3.738462   0          0          100        0         
12-8-39          3.815385   0          0          100        0         
12-9-39          3.892308   0          0          100        0         
12-10-39         3.969231   0          0          100        0         
12-11-39         4.046154   0          0          100        0         
12-12-39         4.123077   0          0          100        0         
25-1-12          3.225000   0          0          100        0         
25-2-12          3.225000   0          0          100        0         
25-3-12          3.225000   0          0          100        0         
35-1-25          3.670000   0          0          100        0         
35-2-25          3.640000   0          0          100        0         
35-3-25          3.610000   0          0          100        0         
35-4-25          3.580000   0          0          100        0         
35-5-25          3.550000   0          0          100        0         
35-6-25          3.520000   0          0          100        0         
35-7-25          3.490000   0          0          100        0         
35-8-25          3.460000   0          0          100        0         
35-9-25          3.430000   0          0          100        0         
35-10-25         3.400000   0          0          100        0         
35-11-25         3.370000   0          0          100        0         
35-12-25         3.340000   0          0          100        0         
35-13-25         3.310000   0          0          100        0         
35-14-25         3.280000   0          0          100        0         
8-1-29           5.021875   0          0          100        0         
8-2-29           4.818750   0          0          100        0         
8-3-29           4.615625   0          0          100        0         
8-4-29           4.412500   0          0          100        0         
8-5-29           4.209375   0          0          100        0         
8-6-29           4.006250   0          0          100        0         
8-7-29           3.803125   0          0          100        0         
42-1-11          28.460000  0          0          100        0         
42-2-11          28.345000  0          0          100        0         
42-3-11          28.230000  0          0          100        0         
42-4-11          28.115000  0          0          100        0         
43-1-42          29.250000  0          0          100        0         
43-2-42          29.000000  0          0          100        0         
43-3-42          28.750000  0          0          100        0         
44-1-42          27.708333  0          0          100        0         
44-2-42          28.116667  0          0          100        0         
45-1-46          1.333333   0          0          100        0         
45-2-46          1.566667   0          0          100        0         
45-3-46          1.800000   0          0          100        0         
45-4-46          2.033333   0          0          100        0         
45-5-46          2.266667   0          0          100        0         
47-1-48          2.966667   0          0          100        0         
47-2-48          3.133333   0          0          100        0         
50-1-46          2.033333   0          0          100        0         
50-2-46          2.266667   0          0          100        0         
49-1-50          1.800000   0          0          100        0         
48-1-49          3.150000   0          0          100        0         
48-2-49          2.925000   0          0          100        0         
48-3-49          2.700000   0          0          100        0         
48-4-49          2.475000   0          0          100        0         
48-5-49          2.250000   0          0          100        0         
48-6-49          2.025000   0          0          100        0         
51-1-48          2.462500   0          0          100        0         
50-1-51          1.778571   0          0          100        0         
50-2-51          1.757143   0          0          100        0         
50-3-51          1.735714   0          0          100        0         
50-4-51          1.714286   0          0          100        0         
50-5-51          1.692857   0          0          100        0         
50-6-51          1.671429   0          0          100        0         
52-1-50          1.800000   0          0          100        0         
52-2-50          1.800000   0          0          100        0         
51-1-53          1.612500   0          0          100        0         
54-1-55          2.900000   0          0          100        0         
44-1-57          21.293750  0          0          100        0         
44-2-57          15.262500  0          0          100        0         
44-3-57          9.231250   0          0          100        0         
56-1-44          5.943750   0          0          100        0         
56-2-44          9.012500   0          0          100        0         
56-3-44          12.081250  0          0          100        0         
56-4-44          15.150000  0          0          100        0         
56-5-44          18.218750  0          0          100        0         
56-6-44          21.287500  0          0          100        0         
56-7-44          24.356250  0          0          100        0         
57-1-56          3.165000   0          0          100        0         
57-2-56          3.080000   0          0          100        0         
57-3-56          2.995000   0          0          100        0         
57-4-56          2.910000   0          0          100        0         
58-1-57          3.558333   0          0          100        0         
58-2-57          3.516667   0          0          100        0         
58-3-57          3.475000   0          0          100        0         
58-4-57          3.433333   0          0          100        0         
58-5-57          3.391667   0          0          100        0         
58-6-57          3.350000   0          0          100        0         
58-7-57          3.308333   0          0          100        0         
58-8-57          3.266667   0          0          100        0         
59-1-60          3.468750   0          0          100        0         
55-1-61          2.542708   0          0          100        0         
55-2-61          2.585417   0          0          100        0         
55-3-61          2.628125   0          0          100        0         
55-4-61          2.670833   0          0          100        0         
55-5-61          2.713542   0          0          100        0         
55-6-61          2.756250   0          0          100        0         
55-7-61          2.798958   0          0          100        0         
55-8-61          2.841667   0          0          100        0         
55-9-61          2.884375   0          0          100        0         
55-10-61         2.927083   0          0          100        0         
55-11-61         2.969792   0          0          100        0         
52-1-53          1.775000   0          0          100        0         
52-2-53          1.750000   0          0          100        0         
52-3-53          1.725000   0          0          100        0         
52-4-53          1.700000   0          0          100        0         
52-5-53          1.675000   0          0          100        0         
52-6-53          1.650000   0          0          100        0         
45-1-52          1.275000   0          0          100        0         
45-2-52          1.450000   0          0          100        0         
45-3-52          1.625000   0          0          100        0         
61-1-5           2.733333   0          0          100        0         
61-2-5           2.466667   0          0          100        0         
60-1-61          3.062500   0          0          100        0         
58-1-60          3.534375   0          0          100        0         
58-2-60          3.393750   0          0          100        0         