[TITLE]
;;Project Title/Notes

[OPTIONS]
;;Option             Value
FLOW_UNITS           LPS
INFILTRATION         HORTON
FLOW_ROUTING         DYNWAVE
LINK_OFFSETS         DEPTH
MIN_SLOPE            0
ALLOW_PONDING        NO
SKIP_STEADY_STATE    NO

START_DATE           05/18/2022
START_TIME           00:00:00
REPORT_START_DATE    05/18/2022
REPORT_START_TIME    00:00:00
END_DATE             05/18/2022
END_TIME             23:59:00
SWEEP_START          01/01
SWEEP_END            12/31
DRY_DAYS             0
REPORT_STEP          01:00:00
WET_STEP             00:01:00
DRY_STEP             00:01:00
ROUTING_STEP         0:00:01 
RULE_STEP            00:00:00

INERTIAL_DAMPING     PARTIAL
NORMAL_FLOW_LIMITED  BOTH
FORCE_MAIN_EQUATION  H-W
VARIABLE_STEP        0.00
LENGTHENING_STEP     0
MIN_SURFAREA         0.000001
MAX_TRIALS           20
HEAD_TOLERANCE       0.000005
SYS_FLOW_TOL         5
LAT_FLOW_TOL         5
MINIMUM_STEP         0.1
THREADS              1

[EVAPORATION]
;;Data Source    Parameters
;;-------------- ----------------
CONSTANT         0.0
DRY_ONLY         NO

[JUNCTIONS]
;;Name           Elevation  MaxDepth   InitDepth  SurDepth   Aponded   
;;-------------- ---------- ---------- ---------- ---------- ----------
1                2.900000   0          0          100        0         
2                5.000000   0          0          100        0         
3                3.500000   0          0          100        0         
4                3.800000   0          0          100        0         
5                2.200000   0          0          100        0         
6                7.000000   0          0          100        0         
7                6.500000   0          0          100        0         
8                5.200000   0          0          100        0         
9                4.300000   0          0          100        0         
10               5.200000   0          0          100        0         
11               28.000000  0          0          100        0         
12               3.200000   0          0          100        0         
13               3.200000   0          0          100        0         
14               19.200000  0          0          100        0         
18               3.500000   0          0          100        0         
19               2.800000   0          0          100        0         
20               2.700000   0          0          100        0         
21               1.800000   0          0          100        0         
22               2.100000   0          0          100        0         
23               2.000000   0          0          100        0         
24               18.700000  0          0          100        0         
25               3.200000   0          0          100        0         
26               1.600000   0          0          100        0         
27               3.800000   0          0          100        0         
28               4.300000   0          0          100        0         
29               3.600000   0          0          100        0         
30               3.200000   0          0          100        0         
31               2.800000   0          0          100        0         
33               3.800000   0          0          100        0         
34               2.900000   0          0          100        0         
35               3.700000   0          0          100        0         
36               2.100000   0          0          100        0         
37               6.700000   0          0          100        0         
38               6.700000   0          0          100        0         
39               4.200000   0          0          100        0         
40               2.900000   0          0          100        0         
41               2.900000   0          0          100        0         
42               28.500000  0          0          100        0         
44               27.300000  0          0          100        0         
45               1.100000   0          0          100        0         
46               2.500000   0          0          100        0         
47               2.800000   0          0          100        0         
48               3.300000   0          0          100        0         
49               1.800000   0          0          100        0         
50               1.800000   0          0          100        0         
51               1.600000   0          0          100        0         
52               1.800000   0          0          100        0         
53               1.600000   0          0          100        0         
54               3.300000   0          0          100        0         
55               2.500000   0          0          100        0         
56               2.800000   0          0          100        0         
57               3.200000   0          0          100        0         
58               3.600000   0          0          100        0         
59               3.800000   0          0          100        0         
60               3.100000   0          0          100        0         
61               3.000000   0          0          100        0         
62               4.200000   0          0          100        0         
76               4.200000   0          0          100        0         
83               2.100000   0          0          100        0         
84               3.300000   0          0          100        0         
85               2.100000   0          0          100        0         
86               1.500000   0          0          100        0         
87               19.200000  0          0          100        0         
88               2.100000   0          0          100        0         
89               1.500000   0          0          100        0         
1-1-2            2.964688   0          0          100        0         
1-2-2            3.016875   0          0          100        0         
1-3-2            3.069063   0          0          100        0         
1-4-2            3.121250   0          0          100        0         
1-5-2            3.173437   0          0          100        0         
1-6-2            3.225625   0          0          100        0         
1-7-2            3.277813   0          0          100        0         
1-8-2            3.330000   0          0          100        0         
1-9-2            3.382188   0          0          100        0         
1-10-2           3.434375   0          0          100        0         
1-11-2           3.486562   0          0          100        0         
1-12-2           3.538750   0          0          100        0         
1-13-2           3.590937   0          0          100        0         
1-14-2           3.643125   0          0          100        0         
1-15-2           3.695312   0          0          100        0         
1-16-2           3.747500   0          0          100        0         
1-17-2           3.799688   0          0          100        0         
1-18-2           3.851875   0          0          100        0         
1-19-2           3.904063   0          0          100        0         
1-20-2           3.956250   0          0          100        0         
1-21-2           4.008438   0          0          100        0         
1-22-2           4.060625   0          0          100        0         
1-23-2           4.112813   0          0          100        0         
1-24-2           4.165000   0          0          100        0         
1-25-2           4.217187   0          0          100        0         
1-26-2           4.269375   0          0          100        0         
1-27-2           4.321562   0          0          100        0         
1-28-2           4.373750   0          0          100        0         
1-29-2           4.425937   0          0          100        0         
1-30-2           4.478125   0          0          100        0         
1-31-2           4.530312   0          0          100        0         
1-32-2           4.582500   0          0          100        0         
1-33-2           4.634688   0          0          100        0         
1-34-2           4.686875   0          0          100        0         
1-35-2           4.739063   0          0          100        0         
1-36-2           4.791250   0          0          100        0         
1-37-2           4.843438   0          0          100        0         
1-38-2           4.895625   0          0          100        0         
1-39-2           4.947812   0          0          100        0         
3-1-4            3.518056   0          0          100        0         
3-2-4            3.536111   0          0          100        0         
3-3-4            3.554167   0          0          100        0         
3-4-4            3.572222   0          0          100        0         
3-5-4            3.590278   0          0          100        0         
3-6-4            3.608333   0          0          100        0         
3-7-4            3.626389   0          0          100        0         
3-8-4            3.644444   0          0          100        0         
3-9-4            3.662500   0          0          100        0         
3-10-4           3.680556   0          0          100        0         
3-11-4           3.698611   0          0          100        0         
3-12-4           3.716667   0          0          100        0         
3-13-4           3.734722   0          0          100        0         
3-14-4           3.752778   0          0          100        0         
3-15-4           3.770833   0          0          100        0         
3-16-4           3.788889   0          0          100        0         
3-17-4           3.806944   0          0          100        0         
3-1-5            3.501974   0          0          100        0         
3-2-5            3.478947   0          0          100        0         
3-3-5            3.455921   0          0          100        0         
3-4-5            3.432895   0          0          100        0         
3-5-5            3.409868   0          0          100        0         
3-6-5            3.386842   0          0          100        0         
3-7-5            3.363816   0          0          100        0         
3-8-5            3.340789   0          0          100        0         
3-9-5            3.317763   0          0          100        0         
3-10-5           3.294737   0          0          100        0         
3-11-5           3.271711   0          0          100        0         
3-12-5           3.248684   0          0          100        0         
3-13-5           3.225658   0          0          100        0         
3-14-5           3.202632   0          0          100        0         
3-15-5           3.179605   0          0          100        0         
3-16-5           3.156579   0          0          100        0         
3-17-5           3.133553   0          0          100        0         
3-18-5           3.110526   0          0          100        0         
3-19-5           3.087500   0          0          100        0         
3-20-5           3.064474   0          0          100        0         
3-21-5           3.041447   0          0          100        0         
3-22-5           3.018421   0          0          100        0         
3-23-5           2.995395   0          0          100        0         
3-24-5           2.972368   0          0          100        0         
3-25-5           2.949342   0          0          100        0         
3-26-5           2.926316   0          0          100        0         
3-27-5           2.903289   0          0          100        0         
3-28-5           2.880263   0          0          100        0         
3-29-5           2.857237   0          0          100        0         
3-30-5           2.834211   0          0          100        0         
3-31-5           2.811184   0          0          100        0         
3-32-5           2.788158   0          0          100        0         
3-33-5           2.765132   0          0          100        0         
3-34-5           2.742105   0          0          100        0         
3-35-5           2.719079   0          0          100        0         
3-36-5           2.696053   0          0          100        0         
3-37-5           2.673026   0          0          100        0         
3-38-5           2.650000   0          0          100        0         
3-39-5           2.626974   0          0          100        0         
3-40-5           2.603947   0          0          100        0         
3-41-5           2.580921   0          0          100        0         
3-42-5           2.557895   0          0          100        0         
3-43-5           2.534868   0          0          100        0         
3-44-5           2.511842   0          0          100        0         
3-45-5           2.488816   0          0          100        0         
3-46-5           2.465789   0          0          100        0         
3-47-5           2.442763   0          0          100        0         
3-48-5           2.419737   0          0          100        0         
3-49-5           2.396711   0          0          100        0         
3-50-5           2.373684   0          0          100        0         
3-51-5           2.350658   0          0          100        0         
3-52-5           2.327632   0          0          100        0         
3-53-5           2.304605   0          0          100        0         
3-54-5           2.281579   0          0          100        0         
3-55-5           2.258553   0          0          100        0         
3-56-5           2.235526   0          0          100        0         
3-1-1            3.456818   0          0          100        0         
3-2-1            3.401136   0          0          100        0         
3-3-1            3.345455   0          0          100        0         
3-4-1            3.289773   0          0          100        0         
3-5-1            3.234091   0          0          100        0         
3-6-1            3.178409   0          0          100        0         
3-7-1            3.122727   0          0          100        0         
3-8-1            3.067045   0          0          100        0         
3-9-1            3.011364   0          0          100        0         
3-10-1           2.955682   0          0          100        0         
6-1-7            6.900000   0          0          100        0         
6-2-7            6.800000   0          0          100        0         
6-3-7            6.700000   0          0          100        0         
6-4-7            6.600000   0          0          100        0         
6-1-8            6.808333   0          0          100        0         
6-2-8            6.616667   0          0          100        0         
6-3-8            6.425000   0          0          100        0         
6-4-8            6.233333   0          0          100        0         
6-5-8            6.041667   0          0          100        0         
6-6-8            5.850000   0          0          100        0         
6-7-8            5.658333   0          0          100        0         
6-8-8            5.466667   0          0          100        0         
9-1-6            4.329032   0          0          100        0         
9-2-6            4.358065   0          0          100        0         
9-3-6            4.387097   0          0          100        0         
9-4-6            4.416129   0          0          100        0         
9-5-6            4.445161   0          0          100        0         
9-6-6            4.474194   0          0          100        0         
9-7-6            4.503226   0          0          100        0         
9-8-6            4.532258   0          0          100        0         
9-9-6            4.561290   0          0          100        0         
9-10-6           4.590323   0          0          100        0         
9-11-6           4.619355   0          0          100        0         
9-12-6           4.648387   0          0          100        0         
9-13-6           4.677419   0          0          100        0         
9-14-6           4.706452   0          0          100        0         
9-15-6           4.735484   0          0          100        0         
9-16-6           4.764516   0          0          100        0         
9-17-6           4.793548   0          0          100        0         
9-18-6           4.822581   0          0          100        0         
9-19-6           4.851613   0          0          100        0         
9-20-6           4.880645   0          0          100        0         
9-21-6           4.909677   0          0          100        0         
9-22-6           4.938710   0          0          100        0         
9-23-6           4.967742   0          0          100        0         
9-24-6           4.996774   0          0          100        0         
9-25-6           5.025806   0          0          100        0         
9-26-6           5.054839   0          0          100        0         
9-27-6           5.083871   0          0          100        0         
9-28-6           5.112903   0          0          100        0         
9-29-6           5.141935   0          0          100        0         
9-30-6           5.170968   0          0          100        0         
9-31-6           5.200000   0          0          100        0         
9-32-6           5.229032   0          0          100        0         
9-33-6           5.258065   0          0          100        0         
9-34-6           5.287097   0          0          100        0         
9-35-6           5.316129   0          0          100        0         
9-36-6           5.345161   0          0          100        0         
9-37-6           5.374194   0          0          100        0         
9-38-6           5.403226   0          0          100        0         
9-39-6           5.432258   0          0          100        0         
9-40-6           5.461290   0          0          100        0         
9-41-6           5.490323   0          0          100        0         
9-42-6           5.519355   0          0          100        0         
9-43-6           5.548387   0          0          100        0         
9-44-6           5.577419   0          0          100        0         
9-45-6           5.606452   0          0          100        0         
9-46-6           5.635484   0          0          100        0         
9-47-6           5.664516   0          0          100        0         
9-48-6           5.693548   0          0          100        0         
9-49-6           5.722581   0          0          100        0         
9-50-6           5.751613   0          0          100        0         
9-51-6           5.780645   0          0          100        0         
9-52-6           5.809677   0          0          100        0         
9-53-6           5.838710   0          0          100        0         
9-54-6           5.867742   0          0          100        0         
9-55-6           5.896774   0          0          100        0         
9-56-6           5.925806   0          0          100        0         
9-57-6           5.954839   0          0          100        0         
9-58-6           5.983871   0          0          100        0         
9-59-6           6.012903   0          0          100        0         
9-60-6           6.041935   0          0          100        0         
9-61-6           6.070968   0          0          100        0         
9-62-6           6.100000   0          0          100        0         
9-63-6           6.129032   0          0          100        0         
9-64-6           6.158065   0          0          100        0         
9-65-6           6.187097   0          0          100        0         
9-66-6           6.216129   0          0          100        0         
9-67-6           6.245161   0          0          100        0         
9-68-6           6.274194   0          0          100        0         
9-69-6           6.303226   0          0          100        0         
9-70-6           6.332258   0          0          100        0         
9-71-6           6.361290   0          0          100        0         
9-72-6           6.390323   0          0          100        0         
9-73-6           6.419355   0          0          100        0         
9-74-6           6.448387   0          0          100        0         
9-75-6           6.477419   0          0          100        0         
9-76-6           6.506452   0          0          100        0         
9-77-6           6.535484   0          0          100        0         
9-78-6           6.564516   0          0          100        0         
9-79-6           6.593548   0          0          100        0         
9-80-6           6.622581   0          0          100        0         
9-81-6           6.651613   0          0          100        0         
9-82-6           6.680645   0          0          100        0         
9-83-6           6.709677   0          0          100        0         
9-84-6           6.738710   0          0          100        0         
9-85-6           6.767742   0          0          100        0         
9-86-6           6.796774   0          0          100        0         
9-87-6           6.825806   0          0          100        0         
9-88-6           6.854839   0          0          100        0         
9-89-6           6.883871   0          0          100        0         
9-90-6           6.912903   0          0          100        0         
9-91-6           6.941935   0          0          100        0         
9-92-6           6.970968   0          0          100        0         
10-1-11          5.580833   0          0          100        0         
10-2-11          5.961667   0          0          100        0         
10-3-11          6.342500   0          0          100        0         
10-4-11          6.723333   0          0          100        0         
10-5-11          7.104167   0          0          100        0         
10-6-11          7.485000   0          0          100        0         
10-7-11          7.865833   0          0          100        0         
10-8-11          8.246667   0          0          100        0         
10-9-11          8.627500   0          0          100        0         
10-10-11         9.008333   0          0          100        0         
10-11-11         9.389167   0          0          100        0         
10-12-11         9.770000   0          0          100        0         
10-13-11         10.150833  0          0          100        0         
10-14-11         10.531667  0          0          100        0         
10-15-11         10.912500  0          0          100        0         
10-16-11         11.293333  0          0          100        0         
10-17-11         11.674167  0          0          100        0         
10-18-11         12.055000  0          0          100        0         
10-19-11         12.435833  0          0          100        0         
10-20-11         12.816667  0          0          100        0         
10-21-11         13.197500  0          0          100        0         
10-22-11         13.578333  0          0          100        0         
10-23-11         13.959167  0          0          100        0         
10-24-11         14.340000  0          0          100        0         
10-25-11         14.720833  0          0          100        0         
10-26-11         15.101667  0          0          100        0         
10-27-11         15.482500  0          0          100        0         
10-28-11         15.863333  0          0          100        0         
10-29-11         16.244167  0          0          100        0         
10-30-11         16.625000  0          0          100        0         
10-31-11         17.005833  0          0          100        0         
10-32-11         17.386667  0          0          100        0         
10-33-11         17.767500  0          0          100        0         
10-34-11         18.148333  0          0          100        0         
10-35-11         18.529167  0          0          100        0         
10-36-11         18.910000  0          0          100        0         
10-37-11         19.290833  0          0          100        0         
10-38-11         19.671667  0          0          100        0         
10-39-11         20.052500  0          0          100        0         
10-40-11         20.433333  0          0          100        0         
10-41-11         20.814167  0          0          100        0         
10-42-11         21.195000  0          0          100        0         
10-43-11         21.575833  0          0          100        0         
10-44-11         21.956667  0          0          100        0         
10-45-11         22.337500  0          0          100        0         
10-46-11         22.718333  0          0          100        0         
10-47-11         23.099167  0          0          100        0         
10-48-11         23.480000  0          0          100        0         
10-49-11         23.860833  0          0          100        0         
10-50-11         24.241667  0          0          100        0         
10-51-11         24.622500  0          0          100        0         
10-52-11         25.003333  0          0          100        0         
10-53-11         25.384167  0          0          100        0         
10-54-11         25.765000  0          0          100        0         
10-55-11         26.145833  0          0          100        0         
10-56-11         26.526667  0          0          100        0         
10-57-11         26.907500  0          0          100        0         
10-58-11         27.288333  0          0          100        0         
10-59-11         27.669167  0          0          100        0         
15-1-14          19.700000  0          0          100        0         
13-1-26          3.135417   0          0          100        0         
13-2-26          3.070833   0          0          100        0         
13-3-26          3.006250   0          0          100        0         
13-4-26          2.941667   0          0          100        0         
13-5-26          2.877083   0          0          100        0         
13-6-26          2.812500   0          0          100        0         
13-7-26          2.747917   0          0          100        0         
13-8-26          2.683333   0          0          100        0         
13-9-26          2.618750   0          0          100        0         
13-10-26         2.554167   0          0          100        0         
13-11-26         2.489583   0          0          100        0         
13-12-26         2.425000   0          0          100        0         
13-13-26         2.360417   0          0          100        0         
13-14-26         2.295833   0          0          100        0         
13-15-26         2.231250   0          0          100        0         
13-16-26         2.166667   0          0          100        0         
13-17-26         2.102083   0          0          100        0         
13-18-26         2.037500   0          0          100        0         
13-19-26         1.972917   0          0          100        0         
13-20-26         1.908333   0          0          100        0         
13-21-26         1.843750   0          0          100        0         
13-22-26         1.779167   0          0          100        0         
13-23-26         1.714583   0          0          100        0         
18-1-13          3.488000   0          0          100        0         
18-2-13          3.476000   0          0          100        0         
18-3-13          3.464000   0          0          100        0         
18-4-13          3.452000   0          0          100        0         
18-5-13          3.440000   0          0          100        0         
18-6-13          3.428000   0          0          100        0         
18-7-13          3.416000   0          0          100        0         
18-8-13          3.404000   0          0          100        0         
18-9-13          3.392000   0          0          100        0         
18-10-13         3.380000   0          0          100        0         
18-11-13         3.368000   0          0          100        0         
18-12-13         3.356000   0          0          100        0         
18-13-13         3.344000   0          0          100        0         
18-14-13         3.332000   0          0          100        0         
18-15-13         3.320000   0          0          100        0         
18-16-13         3.308000   0          0          100        0         
18-17-13         3.296000   0          0          100        0         
18-18-13         3.284000   0          0          100        0         
18-19-13         3.272000   0          0          100        0         
18-20-13         3.260000   0          0          100        0         
18-21-13         3.248000   0          0          100        0         
18-22-13         3.236000   0          0          100        0         
18-23-13         3.224000   0          0          100        0         
18-24-13         3.212000   0          0          100        0         
18-1-19          3.450000   0          0          100        0         