[TITLE]
;;Project Title/Notes

[OPTIONS]
;;Option             Value
FLOW_UNITS           LPS
INFILTRATION         HORTON
FLOW_ROUTING         DYNWAVE
LINK_OFFSETS         DEPTH
MIN_SLOPE            0
ALLOW_PONDING        NO
SKIP_STEADY_STATE    NO

START_DATE           05/18/2022
START_TIME           00:00:00
REPORT_START_DATE    05/18/2022
REPORT_START_TIME    00:00:00
END_DATE             05/18/2022
END_TIME             23:59:00
SWEEP_START          01/01
SWEEP_END            12/31
DRY_DAYS             0
REPORT_STEP          01:00:00
WET_STEP             00:01:00
DRY_STEP             00:01:00
ROUTING_STEP         0.5
RULE_STEP            00:00:00

INERTIAL_DAMPING     PARTIAL
NORMAL_FLOW_LIMITED  BOTH
FORCE_MAIN_EQUATION  H-W
VARIABLE_STEP        0.00
LENGTHENING_STEP     0
MIN_SURFAREA         0.000001
MAX_TRIALS           20
HEAD_TOLERANCE       0.000005
SYS_FLOW_TOL         5
LAT_FLOW_TOL         5
MINIMUM_STEP         0.1
THREADS              1

[EVAPORATION]
;;Data Source    Parameters
;;-------------- ----------------
CONSTANT         0.0
DRY_ONLY         NO

[JUNCTIONS]
;;Name           Elevation  MaxDepth   InitDepth  SurDepth   Aponded   
;;-------------- ---------- ---------- ---------- ---------- ----------
1                2.900000   0          0          100        0         
2                5.000000   0          0          100        0         
3                3.500000   0          0          100        0         
4                3.800000   0          0          100        0         
5                2.200000   0          0          100        0         
6                7.000000   0          0          100        0         
7                6.500000   0          0          100        0         
8                5.200000   0          0          100        0         
9                4.300000   0          0          100        0         
10               5.200000   0          0          100        0         
11               28.000000  0          0          100        0         
12               3.200000   0          0          100        0         
13               3.200000   0          0          100        0         
14               19.200000  0          0          100        0         
18               3.500000   0          0          100        0         
19               2.800000   0          0          100        0         
20               2.700000   0          0          100        0         
21               1.800000   0          0          100        0         
22               2.100000   0          0          100        0         
23               2.000000   0          0          100        0         
24               18.700000  0          0          100        0         
25               3.200000   0          0          100        0         
26               1.600000   0          0          100        0         
27               3.800000   0          0          100        0         
28               4.300000   0          0          100        0         
29               3.600000   0          0          100        0         
30               3.200000   0          0          100        0         
31               2.800000   0          0          100        0         
33               3.800000   0          0          100        0         
34               2.900000   0          0          100        0         
35               3.700000   0          0          100        0         
36               2.100000   0          0          100        0         
37               6.700000   0          0          100        0         
38               6.700000   0          0          100        0         
39               4.200000   0          0          100        0         
40               2.900000   0          0          100        0         
41               2.900000   0          0          100        0         
42               28.500000  0          0          100        0         
44               27.300000  0          0          100        0         
45               1.100000   0          0          100        0         
46               2.500000   0          0          100        0         
47               2.800000   0          0          100        0         
48               3.300000   0          0          100        0         
49               1.800000   0          0          100        0         
50               1.800000   0          0          100        0         
51               1.600000   0          0          100        0         
52               1.800000   0          0          100        0         
53               1.600000   0          0          100        0         
54               3.300000   0          0          100        0         
55               2.500000   0          0          100        0         
56               2.800000   0          0          100        0         
57               3.200000   0          0          100        0         
58               3.600000   0          0          100        0         
59               3.800000   0          0          100        0         
60               3.100000   0          0          100        0         
61               3.000000   0          0          100        0         
62               4.200000   0          0          100        0         
76               4.200000   0          0          100        0         
83               2.100000   0          0          100        0         
84               3.300000   0          0          100        0         
85               2.100000   0          0          100        0         
86               1.500000   0          0          100        0         
87               19.200000  0          0          100        0         
88               2.100000   0          0          100        0         
89               1.500000   0          0          100        0         
1-1-2            3.016875   0          0          100        0         
1-2-2            3.121250   0          0          100        0         
1-3-2            3.225625   0          0          100        0         
1-4-2            3.330000   0          0          100        0         
1-5-2            3.434375   0          0          100        0         
1-6-2            3.538750   0          0          100        0         
1-7-2            3.643125   0          0          100        0         
1-8-2            3.747500   0          0          100        0         
1-9-2            3.851875   0          0          100        0         
1-10-2           3.956250   0          0          100        0         
1-11-2           4.060625   0          0          100        0         
1-12-2           4.165000   0          0          100        0         
1-13-2           4.269375   0          0          100        0         
1-14-2           4.373750   0          0          100        0         
1-15-2           4.478125   0          0          100        0         
1-16-2           4.582500   0          0          100        0         
1-17-2           4.686875   0          0          100        0         
1-18-2           4.791250   0          0          100        0         
1-19-2           4.895625   0          0          100        0         
3-1-4            3.536111   0          0          100        0         
3-2-4            3.572222   0          0          100        0         
3-3-4            3.608333   0          0          100        0         
3-4-4            3.644444   0          0          100        0         
3-5-4            3.680556   0          0          100        0         
3-6-4            3.716667   0          0          100        0         
3-7-4            3.752778   0          0          100        0         
3-8-4            3.788889   0          0          100        0         
3-1-5            3.479741   0          0          100        0         
3-2-5            3.434483   0          0          100        0         
3-3-5            3.389224   0          0          100        0         
3-4-5            3.343966   0          0          100        0         
3-5-5            3.298707   0          0          100        0         
3-6-5            3.253448   0          0          100        0         
3-7-5            3.208190   0          0          100        0         
3-8-5            3.162931   0          0          100        0         
3-9-5            3.117672   0          0          100        0         
3-10-5           3.072414   0          0          100        0         
3-11-5           3.027155   0          0          100        0         
3-12-5           2.981897   0          0          100        0         
3-13-5           2.936638   0          0          100        0         
3-14-5           2.891379   0          0          100        0         
3-15-5           2.846121   0          0          100        0         
3-16-5           2.800862   0          0          100        0         
3-17-5           2.755603   0          0          100        0         
3-18-5           2.710345   0          0          100        0         
3-19-5           2.665086   0          0          100        0         
3-20-5           2.619828   0          0          100        0         
3-21-5           2.574569   0          0          100        0         
3-22-5           2.529310   0          0          100        0         
3-23-5           2.484052   0          0          100        0         
3-24-5           2.438793   0          0          100        0         
3-25-5           2.393534   0          0          100        0         
3-26-5           2.348276   0          0          100        0         
3-27-5           2.303017   0          0          100        0         
3-28-5           2.257759   0          0          100        0         
3-1-1            3.410417   0          0          100        0         
3-2-1            3.308333   0          0          100        0         
3-3-1            3.206250   0          0          100        0         
3-4-1            3.104167   0          0          100        0         
3-5-1            3.002083   0          0          100        0         
6-1-7            6.833333   0          0          100        0         
6-2-7            6.666667   0          0          100        0         
6-1-8            6.655000   0          0          100        0         
6-2-8            6.310000   0          0          100        0         
6-3-8            5.965000   0          0          100        0         
6-4-8            5.620000   0          0          100        0         
9-1-6            4.357447   0          0          100        0         
9-2-6            4.414894   0          0          100        0         
9-3-6            4.472340   0          0          100        0         
9-4-6            4.529787   0          0          100        0         
9-5-6            4.587234   0          0          100        0         
9-6-6            4.644681   0          0          100        0         
9-7-6            4.702128   0          0          100        0         
9-8-6            4.759574   0          0          100        0         
9-9-6            4.817021   0          0          100        0         
9-10-6           4.874468   0          0          100        0         
9-11-6           4.931915   0          0          100        0         
9-12-6           4.989362   0          0          100        0         
9-13-6           5.046809   0          0          100        0         
9-14-6           5.104255   0          0          100        0         
9-15-6           5.161702   0          0          100        0         
9-16-6           5.219149   0          0          100        0         
9-17-6           5.276596   0          0          100        0         
9-18-6           5.334043   0          0          100        0         
9-19-6           5.391489   0          0          100        0         
9-20-6           5.448936   0          0          100        0         
9-21-6           5.506383   0          0          100        0         
9-22-6           5.563830   0          0          100        0         
9-23-6           5.621277   0          0          100        0         
9-24-6           5.678723   0          0          100        0         
9-25-6           5.736170   0          0          100        0         
9-26-6           5.793617   0          0          100        0         
9-27-6           5.851064   0          0          100        0         
9-28-6           5.908511   0          0          100        0         
9-29-6           5.965957   0          0          100        0         
9-30-6           6.023404   0          0          100        0         
9-31-6           6.080851   0          0          100        0         
9-32-6           6.138298   0          0          100        0         
9-33-6           6.195745   0          0          100        0         
9-34-6           6.253191   0          0          100        0         
9-35-6           6.310638   0          0          100        0         
9-36-6           6.368085   0          0          100        0         
9-37-6           6.425532   0          0          100        0         
9-38-6           6.482979   0          0          100        0         
9-39-6           6.540426   0          0          100        0         
9-40-6           6.597872   0          0          100        0         
9-41-6           6.655319   0          0          100        0         
9-42-6           6.712766   0          0          100        0         
9-43-6           6.770213   0          0          100        0         
9-44-6           6.827660   0          0          100        0         
9-45-6           6.885106   0          0          100        0         
9-46-6           6.942553   0          0          100        0         
10-1-11          5.961667   0          0          100        0         
10-2-11          6.723333   0          0          100        0         
10-3-11          7.485000   0          0          100        0         
10-4-11          8.246667   0          0          100        0         
10-5-11          9.008333   0          0          100        0         
10-6-11          9.770000   0          0          100        0         
10-7-11          10.531667  0          0          100        0         
10-8-11          11.293333  0          0          100        0         
10-9-11          12.055000  0          0          100        0         
10-10-11         12.816667  0          0          100        0         
10-11-11         13.578333  0          0          100        0         
10-12-11         14.340000  0          0          100        0         
10-13-11         15.101667  0          0          100        0         
10-14-11         15.863333  0          0          100        0         
10-15-11         16.625000  0          0          100        0         
10-16-11         17.386667  0          0          100        0         
10-17-11         18.148333  0          0          100        0         
10-18-11         18.910000  0          0          100        0         
10-19-11         19.671667  0          0          100        0         
10-20-11         20.433333  0          0          100        0         
10-21-11         21.195000  0          0          100        0         
10-22-11         21.956667  0          0          100        0         
10-23-11         22.718333  0          0          100        0         
10-24-11         23.480000  0          0          100        0         
10-25-11         24.241667  0          0          100        0         
10-26-11         25.003333  0          0          100        0         
10-27-11         25.765000  0          0          100        0         
10-28-11         26.526667  0          0          100        0         
10-29-11         27.288333  0          0          100        0         
13-1-26          3.070833   0          0          100        0         
13-2-26          2.941667   0          0          100        0         
13-3-26          2.812500   0          0          100        0         
13-4-26          2.683333   0          0          100        0         
13-5-26          2.554167   0          0          100        0         
13-6-26          2.425000   0          0          100        0         
13-7-26          2.295833   0          0          100        0         
13-8-26          2.166667   0          0          100        0         
13-9-26          2.037500   0          0          100        0         
13-10-26         1.908333   0          0          100        0         
13-11-26         1.779167   0          0          100        0         
18-1-13          3.476923   0          0          100        0         
18-2-13          3.453846   0          0          100        0         
18-3-13          3.430769   0          0          100        0         
18-4-13          3.407692   0          0          100        0         
18-5-13          3.384615   0          0          100        0         
18-6-13          3.361538   0          0          100        0         
18-7-13          3.338462   0          0          100        0         
18-8-13          3.315385   0          0          100        0         
18-9-13          3.292308   0          0          100        0         
18-10-13         3.269231   0          0          100        0         
18-11-13         3.246154   0          0          100        0         
18-12-13         3.223077   0          0          100        0         
18-1-19          3.400000   0          0          100        0         
18-2-19          3.300000   0          0          100        0         
18-3-19          3.200000   0          0          100        0         
18-4-19          3.100000   0          0          100        0         
18-5-19          3.000000   0          0          100        0         
18-6-19          2.900000   0          0          100        0         
20-1-18          2.832143   0          0          100        0         
20-2-18          2.951786   0          0          100        0         
20-3-18          3.071429   0          0          100        0         
20-4-18          3.191071   0          0          100        0         
20-5-18          3.310714   0          0          100        0         
20-6-18          3.430357   0          0          100        0         
21-1-20          1.901389   0          0          100        0         
21-2-20          2.002778   0          0          100        0         
21-3-20          2.104167   0          0          100        0         
21-4-20          2.205556   0          0          100        0         
21-5-20          2.306944   0          0          100        0         
21-6-20          2.408333   0          0          100        0         
21-7-20          2.509722   0          0          100        0         
21-8-20          2.611111   0          0          100        0         
22-1-23          2.080000   0          0          100        0         
22-2-23          2.060000   0          0          100        0         
22-3-23          2.040000   0          0          100        0         
22-4-23          2.020000   0          0          100        0         
24-1-25          17.996250  0          0          100        0         
24-2-25          17.217500  0          0          100        0         
24-3-25          16.438750  0          0          100        0         
24-4-25          15.660000  0          0          100        0         
24-5-25          14.881250  0          0          100        0         
24-6-25          14.102500  0          0          100        0         
24-7-25          13.323750  0          0          100        0         
24-8-25          12.545000  0          0          100        0         
24-9-25          11.766250  0          0          100        0         
24-10-25         10.987500  0          0          100        0         
24-11-25         10.208750  0          0          100        0         
24-12-25         9.430000   0          0          100        0         
24-13-25         8.651250   0          0          100        0         
24-14-25         7.872500   0          0          100        0         
24-15-25         7.093750   0          0          100        0         
24-16-25         6.315000   0          0          100        0         
24-17-25         5.536250   0          0          100        0         
24-18-25         4.757500   0          0          100        0         
24-19-25         3.978750   0          0          100        0         
14-1-24          19.075000  0          0          100        0         
14-2-24          18.950000  0          0          100        0         
14-3-24          18.825000  0          0          100        0         
24-1-26          15.300000  0          0          100        0         
24-2-26          11.875000  0          0          100        0         
24-3-26          8.450000   0          0          100        0         
24-4-26          5.025000   0          0          100        0         
26-1-27          1.957143   0          0          100        0         
26-2-27          2.264286   0          0          100        0         
26-3-27          2.571429   0          0          100        0         
26-4-27          2.878571   0          0          100        0         
26-5-27          3.185714   0          0          100        0         
26-6-27          3.492857   0          0          100        0         
21-1-22          1.820000   0          0          100        0         
21-2-22          1.840000   0          0          100        0         
21-3-22          1.860000   0          0          100        0         
21-4-22          1.880000   0          0          100        0         
21-5-22          1.900000   0          0          100        0         
21-6-22          1.920000   0          0          100        0         
21-7-22          1.940000   0          0          100        0         
21-8-22          1.960000   0          0          100        0         
21-9-22          1.980000   0          0          100        0         
21-10-22         2.000000   0          0          100        0         
21-11-22         2.020000   0          0          100        0         
21-12-22         2.040000   0          0          100        0         
21-13-22         2.060000   0          0          100        0         
21-14-22         2.080000   0          0          100        0         
23-1-21          1.984615   0          0          100        0         
23-2-21          1.969231   0          0          100        0         
23-3-21          1.953846   0          0          100        0         
23-4-21          1.938462   0          0          100        0         
23-5-21          1.923077   0          0          100        0         
23-6-21          1.907692   0          0          100        0         
23-7-21          1.892308   0          0          100        0         
23-8-21          1.876923   0          0          100        0         
23-9-21          1.861538   0          0          100        0         
23-10-21         1.846154   0          0          100        0         
23-11-21         1.830769   0          0          100        0         
23-12-21         1.815385   0          0          100        0         
27-1-23          3.644444   0          0          100        0         
27-2-23          3.438889   0          0          100        0         
27-3-23          3.233333   0          0          100        0         
27-4-23          3.027778   0          0          100        0         
27-5-23          2.822222   0          0          100        0         
27-6-23          2.616667   0          0          100        0         
27-7-23          2.411111   0          0          100        0         
27-8-23          2.205556   0          0          100        0         
20-1-27          2.766912   0          0          100        0         
20-2-27          2.833824   0          0          100        0         
20-3-27          2.900735   0          0          100        0         
20-4-27          2.967647   0          0          100        0         
20-5-27          3.034559   0          0          100        0         
20-6-27          3.101471   0          0          100        0         
20-7-27          3.168382   0          0          100        0         
20-8-27          3.235294   0          0          100        0         
20-9-27          3.302206   0          0          100        0         
20-10-27         3.369118   0          0          100        0         
20-11-27         3.436029   0          0          100        0         
20-12-27         3.502941   0          0          100        0         
20-13-27         3.569853   0          0          100        0         
20-14-27         3.636765   0          0          100        0         
20-15-27         3.703676   0          0          100        0         
20-16-27         3.770588   0          0          100        0         
19-1-20          2.839423   0          0          100        0         
19-2-20          2.828846   0          0          100        0         
19-3-20          2.818269   0          0          100        0         
19-4-20          2.807692   0          0          100        0         
19-5-20          2.797115   0          0          100        0         
19-6-20          2.786538   0          0          100        0         
19-7-20          2.775962   0          0          100        0         
19-8-20          2.765385   0          0          100        0         
19-9-20          2.754808   0          0          100        0         
19-10-20         2.744231   0          0          100        0         
19-11-20         2.733654   0          0          100        0         
19-12-20         2.723077   0          0          100        0         
28-1-29          4.131250   0          0          100        0         
28-2-29          3.962500   0          0          100        0         
28-3-29          3.793750   0          0          100        0         
28-1-30          4.231250   0          0          100        0         
28-2-30          4.137500   0          0          100        0         
28-3-30          4.043750   0          0          100        0         
28-4-30          3.950000   0          0          100        0         
28-5-30          3.856250   0          0          100        0         
28-6-30          3.762500   0          0          100        0         
28-7-30          3.668750   0          0          100        0         
28-8-30          3.575000   0          0          100        0         
28-9-30          3.481250   0          0          100        0         
28-10-30         3.387500   0          0          100        0         
28-11-30         3.293750   0          0          100        0         
30-1-28          3.293750   0          0          100        0         
30-2-28          3.387500   0          0          100        0         
30-3-28          3.481250   0          0          100        0         
30-4-28          3.575000   0          0          100        0         
30-5-28          3.668750   0          0          100        0         
30-6-28          3.762500   0          0          100        0         
30-7-28          3.856250   0          0          100        0         
30-8-28          3.950000   0          0          100        0         
30-9-28          4.043750   0          0          100        0         
30-10-28         4.137500   0          0          100        0         
30-11-28         4.231250   0          0          100        0         
31-1-49          2.643750   0          0          100        0         
31-2-49          2.475000   0          0          100        0         
31-3-49          2.306250   0          0          100        0         
31-4-49          2.137500   0          0          100        0         
31-5-49          1.968750   0          0          100        0         
30-1-33          3.266667   0          0          100        0         
30-2-33          3.333333   0          0          100        0         
30-3-33          3.400000   0          0          100        0         
30-4-33          3.466667   0          0          100        0         
30-5-33          3.533333   0          0          100        0         
30-6-33          3.600000   0          0          100        0         
30-7-33          3.666667   0          0          100        0         
30-8-33          3.733333   0          0          100        0         
34-1-30          2.918750   0          0          100        0         
34-2-30          2.937500   0          0          100        0         
34-3-30          2.956250   0          0          100        0         
34-4-30          2.975000   0          0          100        0         
34-5-30          2.993750   0          0          100        0         
34-6-30          3.012500   0          0          100        0         
34-7-30          3.031250   0          0          100        0         
34-8-30          3.050000   0          0          100        0         
34-9-30          3.068750   0          0          100        0         
34-10-30         3.087500   0          0          100        0         
34-11-30         3.106250   0          0          100        0         
34-12-30         3.125000   0          0          100        0         
34-13-30         3.143750   0          0          100        0         
34-14-30         3.162500   0          0          100        0         