[TITLE]
;;Project Title/Notes

[OPTIONS]
;;Option             Value
FLOW_UNITS           LPS
INFILTRATION         HORTON
FLOW_ROUTING         DYNWAVE
LINK_OFFSETS         DEPTH
MIN_SLOPE            0
ALLOW_PONDING        NO
SKIP_STEADY_STATE    NO

START_DATE           05/18/2022
START_TIME           00:00:00
REPORT_START_DATE    05/18/2022
REPORT_START_TIME    00:00:00
END_DATE             05/18/2022
END_TIME             23:59:00
SWEEP_START          01/01
SWEEP_END            12/31
DRY_DAYS             0
REPORT_STEP          01:00:00
WET_STEP             00:01:00
DRY_STEP             00:01:00
ROUTING_STEP         5.060235416666666
RULE_STEP            00:00:00

INERTIAL_DAMPING     PARTIAL
NORMAL_FLOW_LIMITED  BOTH
FORCE_MAIN_EQUATION  H-W
VARIABLE_STEP        0.00
LENGTHENING_STEP     0
MIN_SURFAREA         0.000001
MAX_TRIALS           20
HEAD_TOLERANCE       0.000005
SYS_FLOW_TOL         5
LAT_FLOW_TOL         5
MINIMUM_STEP         0.1
THREADS              1

[EVAPORATION]
;;Data Source    Parameters
;;-------------- ----------------
CONSTANT         0.0
DRY_ONLY         NO

[JUNCTIONS]
;;Name           Elevation  MaxDepth   InitDepth  SurDepth   Aponded
;;-------------- ---------- ---------- ---------- ---------- ----------
1                2.9        0          0          100        0
2                5.0        0          0          100        0
3                3.5        0          0          100        0
4                3.8        0          0          100        0
5                2.2        0          0          100        0
6                7.0        0          0          100        0
7                6.5        0          0          100        0
8                5.2        0          0          100        0
9                4.3        0          0          100        0
10               5.2        0          0          100        0
11               28.0       0          0          100        0
12               3.2        0          0          100        0
13               3.2        0          0          100        0
14               19.2       0          0          100        0
18               3.5        0          0          100        0
19               2.8        0          0          100        0
20               2.7        0          0          100        0
21               1.8        0          0          100        0
22               2.1        0          0          100        0
23               2.0        0          0          100        0
24               18.7       0          0          100        0
25               3.2        0          0          100        0
26               1.6        0          0          100        0
27               3.8        0          0          100        0
28               4.3        0          0          100        0
29               3.6        0          0          100        0
30               3.2        0          0          100        0
31               2.8        0          0          100        0
33               3.8        0          0          100        0
34               2.9        0          0          100        0
35               3.7        0          0          100        0
36               2.1        0          0          100        0
37               6.7        0          0          100        0
38               6.7        0          0          100        0
39               4.2        0          0          100        0
40               2.9        0          0          100        0
41               2.9        0          0          100        0
42               28.5       0          0          100        0
44               27.3       0          0          100        0
45               1.1        0          0          100        0
46               2.5        0          0          100        0
47               2.8        0          0          100        0
48               3.3        0          0          100        0
49               1.8        0          0          100        0
50               1.8        0          0          100        0
51               1.6        0          0          100        0
52               1.8        0          0          100        0
53               1.6        0          0          100        0
54               3.3        0          0          100        0
55               2.5        0          0          100        0
56               2.8        0          0          100        0
57               3.2        0          0          100        0
58               3.6        0          0          100        0
59               3.8        0          0          100        0
60               3.1        0          0          100        0
61               3.0        0          0          100        0
62               4.2        0          0          100        0
76               4.2        0          0          100        0
83               2.1        0          0          100        0
84               3.3        0          0          100        0
85               2.1        0          0          100        0
86               1.5        0          0          100        0
87               19.2       0          0          100        0
88               2.1        0          0          100        0
89               1.5        0          0          100        0

[OUTFALLS]
;;Name           Elevation  Type       Stage Data       Gated    Route To
;;-------------- ---------- ---------- ---------------- -------- ----------------
Outfall1         2.9        FREE                        NO
Outfall2         5.0        FREE                        NO
Outfall3         3.5        FREE                        NO
Outfall4         3.8        FREE                        NO
Outfall5         2.2        FREE                        NO
Outfall6         7.0        FREE                        NO
Outfall8         5.2        FREE                        NO
Outfall9         4.3        FREE                        NO
Outfall10        5.2        FREE                        NO
Outfall11        28.0       FREE                        NO
Outfall12        3.2        FREE                        NO
Outfall13        3.2        FREE                        NO
Outfall14        19.2       FREE                        NO
Outfall18        3.5        FREE                        NO
Outfall19        2.8        FREE                        NO
Outfall20        2.7        FREE                        NO
Outfall21        1.8        FREE                        NO
Outfall22        2.1        FREE                        NO
Outfall23        2.0        FREE                        NO
Outfall24        18.7       FREE                        NO
Outfall25        3.2        FREE                        NO
Outfall26        1.6        FREE                        NO
Outfall27        3.8        FREE                        NO
Outfall28        4.3        FREE                        NO
Outfall29        3.6        FREE                        NO
Outfall30        3.2        FREE                        NO
Outfall31        2.8        FREE                        NO
Outfall33        3.8        FREE                        NO
Outfall34        2.9        FREE                        NO
Outfall35        3.7        FREE                        NO
Outfall36        2.1        FREE                        NO
Outfall37        6.7        FREE                        NO
Outfall38        6.7        FREE                        NO
Outfall39        4.2        FREE                        NO
Outfall40        2.9        FREE                        NO
Outfall41        2.9        FREE                        NO
Outfall42        28.5       FREE                        NO
Outfall44        27.3       FREE                        NO
Outfall45        1.1        FREE                        NO
Outfall46        2.5        FREE                        NO
Outfall47        2.8        FREE                        NO
Outfall48        3.3        FREE                        NO
Outfall49        1.8        FREE                        NO
Outfall50        1.8        FREE                        NO
Outfall51        1.6        FREE                        NO
Outfall52        1.8        FREE                        NO
Outfall53        1.6        FREE                        NO
Outfall55        2.5        FREE                        NO
Outfall56        2.8        FREE                        NO
Outfall57        3.2        FREE                        NO
Outfall58        3.6        FREE                        NO
Outfall59        3.8        FREE                        NO
Outfall60        3.1        FREE                        NO
Outfall61        3.0        FREE                        NO
Outfall62        4.2        FREE                        NO
Outfall83        2.1        FREE                        NO
Outfall84        3.3        FREE                        NO
Outfall85        2.1        FREE                        NO
Outfall86        1.5        FREE                        NO
Outfall87        19.2       FREE                        NO
Outfall88        2.1        FREE                        NO
Outfall89        1.5        FREE                        NO
L_Outfall1       2.9        FREE                        NO
L_Outfall2       5.0        FREE                        NO
L_Outfall3       3.5        FREE                        NO
L_Outfall4       3.8        FREE                        NO
L_Outfall5       2.2        FREE                        NO
L_Outfall6       7.0        FREE                        NO
L_Outfall8       5.2        FREE                        NO
L_Outfall9       4.3        FREE                        NO
L_Outfall10      5.2        FREE                        NO
L_Outfall11      28.0       FREE                        NO
L_Outfall12      3.2        FREE                        NO
L_Outfall13      3.2        FREE                        NO
L_Outfall14      19.2       FREE                        NO
L_Outfall18      3.5        FREE                        NO
L_Outfall19      2.8        FREE                        NO
L_Outfall20      2.7        FREE                        NO
L_Outfall21      1.8        FREE                        NO
L_Outfall22      2.1        FREE                        NO
L_Outfall23      2.0        FREE                        NO
L_Outfall24      18.7       FREE                        NO
L_Outfall25      3.2        FREE                        NO
L_Outfall26      1.6        FREE                        NO
L_Outfall27      3.8        FREE                        NO
L_Outfall28      4.3        FREE                        NO
L_Outfall29      3.6        FREE                        NO
L_Outfall30      3.2        FREE                        NO
L_Outfall31      2.8        FREE                        NO
L_Outfall33      3.8        FREE                        NO
L_Outfall34      2.9        FREE                        NO
L_Outfall35      3.7        FREE                        NO
L_Outfall36      2.1        FREE                        NO
L_Outfall37      6.7        FREE                        NO
L_Outfall38      6.7        FREE                        NO
L_Outfall39      4.2        FREE                        NO
L_Outfall40      2.9        FREE                        NO
L_Outfall41      2.9        FREE                        NO
L_Outfall42      28.5       FREE                        NO
L_Outfall44      27.3       FREE                        NO
L_Outfall45      1.1        FREE                        NO
L_Outfall46      2.5        FREE                        NO
L_Outfall47      2.8        FREE                        NO
L_Outfall48      3.3        FREE                        NO
L_Outfall49      1.8        FREE                        NO
L_Outfall50      1.8        FREE                        NO
L_Outfall51      1.6        FREE                        NO
L_Outfall52      1.8        FREE                        NO
L_Outfall53      1.6        FREE                        NO
L_Outfall55      2.5        FREE                        NO
L_Outfall56      2.8        FREE                        NO
L_Outfall57      3.2        FREE                        NO
L_Outfall58      3.6        FREE                        NO
L_Outfall59      3.8        FREE                        NO
L_Outfall60      3.1        FREE                        NO
L_Outfall61      3.0        FREE                        NO
L_Outfall62      4.2        FREE                        NO
L_Outfall83      2.1        FREE                        NO
L_Outfall84      3.3        FREE                        NO
L_Outfall85      2.1        FREE                        NO
L_Outfall86      1.5        FREE                        NO
L_Outfall87      19.2       FREE                        NO
L_Outfall88      2.1        FREE                        NO
L_Outfall89      1.5        FREE                        NO

[STORAGE]
;;Name           Elev.    MaxDepth   InitDepth  Shape      Curve Type/Params            SurDepth  Fevap    Psi      Ksat     IMD
;;-------------- -------- ---------- ----------- ---------- ---------------------------- --------- --------          -------- --------
Reservoir-15     27.00    100        30.0       TABULAR    Source15                     0         0
Reservoir-43     23.08    100        30.0       TABULAR    Source43                     0         0
Reservoir-65     25.00    100        30.0       TABULAR    Source65                     0         0
StorageforNode1  2.90     1          0.0        FUNCTIONAL 0          0          432.430374 0         0
StorageforNode2  5.00     1          0.0        FUNCTIONAL 0          0          536.974357 0         0
StorageforNode3  3.50     1          0.0        FUNCTIONAL 0          0          367.199172 0         0
StorageforNode4  3.80     1          0.0        FUNCTIONAL 0          0          367.199172 0         0
StorageforNode5  2.20     1          0.0        FUNCTIONAL 0          0          523.583  0         0
StorageforNode6  7.00     1          0.0        FUNCTIONAL 0          0          70.415877 0         0
StorageforNode8  5.20     1          0.0        FUNCTIONAL 0          0          1451.519087 0         0
StorageforNode9  4.30     1          0.0        FUNCTIONAL 0          0          189.21574 0         0
StorageforNode10 5.20     1          0.0        FUNCTIONAL 0          0          708.480338 0         0
StorageforNode11 28.00    1          0.0        FUNCTIONAL 0          0          1286.061834 0         0
StorageforNode12 3.20     1          0.0        FUNCTIONAL 0          0          21.167794 0         0
StorageforNode13 3.20     1          0.0        FUNCTIONAL 0          0          323.56864 0         0
StorageforNode14 19.20    1          0.0        FUNCTIONAL 0          0          261.793119 0         0
StorageforNode18 3.50     1          0.0        FUNCTIONAL 0          0          217.296106 0         0
StorageforNode19 2.80     1          0.0        FUNCTIONAL 0          0          207.792591 0         0
StorageforNode20 2.70     1          0.0        FUNCTIONAL 0          0          908.929951 0         0
StorageforNode21 1.80     1          0.0        FUNCTIONAL 0          0          731.81007 0         0
StorageforNode22 2.10     1          0.0        FUNCTIONAL 0          0          449.712905 0         0
StorageforNode23 2.00     1          0.0        FUNCTIONAL 0          0          93.743405 0         0
StorageforNode24 18.70    1          0.0        FUNCTIONAL 0          0          282.958982 0         0
StorageforNode25 3.20     1          0.0        FUNCTIONAL 0          0          449.712905 0         0
StorageforNode26 1.60     1          0.0        FUNCTIONAL 0          0          239.76   0         0
StorageforNode27 3.80     1          0.0        FUNCTIONAL 0          0          229.824843 0         0
StorageforNode28 4.30     1          0.0        FUNCTIONAL 0          0          156.816821 0         0
StorageforNode29 3.60     1          0.0        FUNCTIONAL 0          0          1425.596924 0         0
StorageforNode30 3.20     1          0.0        FUNCTIONAL 0          0          259.201308 0         0
StorageforNode31 2.80     1          0.0        FUNCTIONAL 0          0          276.478926 0         0
StorageforNode33 3.80     1          0.0        FUNCTIONAL 0          0          133.488918 0         0
StorageforNode34 2.90     1          0.0        FUNCTIONAL 0          0          133.488918 0         0
StorageforNode35 3.70     1          0.0        FUNCTIONAL 0          0          379.728496 0         0
StorageforNode36 2.10     1          0.0        FUNCTIONAL 0          0          72.575443 0         0
StorageforNode37 6.70     1          0.0        FUNCTIONAL 0          0          546.048332 0         0
StorageforNode38 6.70     1          0.0        FUNCTIONAL 0          0          546.048332 0         0
StorageforNode39 4.20     1          0.0        FUNCTIONAL 0          0          546.048332 0         0
StorageforNode40 2.90     1          0.0        FUNCTIONAL 0          0          240.192939 0         0
StorageforNode41 2.90     1          0.0        FUNCTIONAL 0          0          112.320189 0         0
StorageforNode42 28.50    1          0.0        FUNCTIONAL 0          0          197.424233 0         0
StorageforNode44 27.30    1          0.0        FUNCTIONAL 0          0          326.591793 0         0
StorageforNode45 1.10     1          0.0        FUNCTIONAL 0          0          268.270991 0         0
StorageforNode46 2.50     1          0.0        FUNCTIONAL 0          0          133.488918 0         0
StorageforNode47 2.80     1          0.0        FUNCTIONAL 0          0          25.488048 0         0
StorageforNode48 3.30     1          0.0        FUNCTIONAL 0          0          545.617668 0         0
StorageforNode49 1.80     1          0.0        FUNCTIONAL 0          0          275.184  0         0
StorageforNode50 1.80     1          0.0        FUNCTIONAL 0          0          570.673739 0         0
StorageforNode51 1.60     1          0.0        FUNCTIONAL 0          0          167.183923 0         0
StorageforNode52 1.80     1          0.0        FUNCTIONAL 0          0          277.777203 0         0
StorageforNode53 1.60     1          0.0        FUNCTIONAL 0          0          110.159175 0         0
StorageforNode55 2.50     1          0.0        FUNCTIONAL 0          0          488.160136 0         0
StorageforNode56 2.80     1          0.0        FUNCTIONAL 0          0          172.368545 0         0
StorageforNode57 3.20     1          0.0        FUNCTIONAL 0          0          334.801172 0         0
StorageforNode58 3.60     1          0.0        FUNCTIONAL 0          0          82.512674 0         0
StorageforNode59 3.80     1          0.0        FUNCTIONAL 0          0          38.016431 0         0
StorageforNode60 3.10     1          0.0        FUNCTIONAL 0          0          222.048306 0         0
StorageforNode61 3.00     1          0.0        FUNCTIONAL 0          0          222.048306 0         0
StorageforNode62 4.20     1          0.0        FUNCTIONAL 0          0          321.40741 0         0
StorageforNode83 2.10     1          0.0        FUNCTIONAL 0          0          4.2768   0         0
StorageforNode84 3.30     1          0.0        FUNCTIONAL 0          0          23.328289 0         0
StorageforNode85 2.10     1          0.0        FUNCTIONAL 0          0          15.984288 0         0
StorageforNode86 1.50     1          0.0        FUNCTIONAL 0          0          279.0726 0         0
StorageforNode87 19.20    1          0.0        FUNCTIONAL 0          0          1079.998637 0         0
StorageforNode88 2.10     1          0.0        FUNCTIONAL 0          0          92.88048 0         0
StorageforNode89 1.50     1          0.0        FUNCTIONAL 0          0          75.600608 0         0

[CONDUITS]
;;Name           From Node        To Node          Length     Roughness  InOffset   OutOffset  InitFlow   MaxFlow
;;-------------- ---------------- ---------------- ---------- ---------- ---------- ---------- ---------- ----------
P-1              1                2                977.36     0.011      0.0125     0.0000     0          0
P-2              3                4                443.17     0.011      0.0000     0.0250     0          0
P-3              3                5                1410.77    0.011      0.0250     0.0125     0          0
P-4              3                1                269.61     0.011      0.0125     0.0000     0          0
P-5              6                7                116.52     0.011      0.0000     0.0000     0          0
P-6              6                8                203.06     0.011      0.0000     0.0750     0          0
P-7              9                6                2309.14    0.011      0.0000     0.0000     0          0
P-8              10               11               1479.98    0.011      0.0000     0.0500     0          0
P-11             Reservoir-15     14               43.97      0.011      0.0000     0.0000     0          0
P-12             13               26               589.16     0.011      0.0000     0.0500     0          0
P-13             18               13               618.53     0.011      0.0000     0.0000     0          0
P-14             18               19               341.10     0.011      0.0000     0.0000     0          0
P-15             20               18               341.92     0.011      0.0125     0.0500     0          0
P-16             21               20               434.24     0.011      0.0000     0.0125     0          0
P-17             22               23               240.59     0.011      0.0000     0.0000     0          0
P-18             24               25               957.44     0.011      0.0750     0.0000     0          0
P-19             14               24               171.04     0.011      0.0000     0.0000     0          0
P-20             24               26               235.57     0.011      0.0250     0.0000     0          0
P-22             26               27               324.36     0.011      0.0500     0.0000     0          0
P-24             21               22               749.74     0.011      0.0000     0.0000     0          0
P-25             23               21               639.70     0.011      0.0000     0.0000     0          0
P-26             27               23               422.95     0.011      0.0500     0.0000     0          0
P-27             20               27               843.52     0.011      0.0000     0.0375     0          0
P-28             19               20               609.23     0.011      0.0500     0.0125     0          0
P-29             28               29               179.04     0.011      0.0000     0.0250     0          0
P-30             28               30               570.90     0.011      0.0250     0.0000     0          0
P-31             30               28               575.73     0.011      0.0000     0.0250     0          0
P-32             31               49               250.28     0.011      0.0125     0.0000     0          0
P-33             30               33               442.11     0.011      0.0000     0.0000     0          0
P-34             34               30               762.35     0.011      0.0000     0.0000     0          0
P-35             35               36               1124.90    0.011      0.0000     0.0000     0          0
P-36             31               11               1903.75    0.011      0.0125     0.0750     0          0
P-37             37               31               125.51     0.011      0.0375     0.0000     0          0
P-38             37               38               121.27     0.011      0.0000     0.0000     0          0
P-39             19               38               55.32      0.011      0.0000     0.0000     0          0
P-41             40               39               424.86     0.011      0.0000     0.0500     0          0
P-42             40               41               72.80      0.011      0.0000     0.0000     0          0
P-43             9                40               554.08     0.011      0.0000     0.0000     0          0
P-44             33               9                305.53     0.011      0.0000     0.0000     0          0
P-45             41               33               568.35     0.011      0.0000     0.0000     0          0
P-46             34               41               63.81      0.011      0.0000     0.0000     0          0
P-47             39               34               310.76     0.011      0.0500     0.0000     0          0
P-48             12               39               1217.17    0.011      0.0000     0.0000     0          0
P-49             25               12               365.82     0.011      0.0250     0.0250     0          0
P-50             35               25               1408.33    0.011      0.0000     0.0500     0          0
P-51             29               35               33.25      0.011      0.0500     0.0000     0          0
P-52             8                29               720.90     0.011      0.0250     0.0000     0          0
P-53             42               11               441.69     0.011      0.0750     0.0000     0          0
P-54             Reservoir-43     42               332.99     0.011      0.0000     0.0000     0          0
P-55             44               42               229.85     0.011      0.0000     0.0250     0          0
P-56             45               46               500.92     0.011      0.0000     0.0000     0          0
P-57             47               48               232.07     0.011      0.0000     0.0000     0          0
P-59             46               49               66.24      0.011      0.0000     0.0000     0          0
P-60             50               46               232.13     0.011      0.0000     0.0000     0          0
P-61             49               50               154.78     0.011      0.0000     0.0000     0          0
P-62             48               49               645.10     0.011      0.0750     0.0000     0          0
P-63             51               48               157.87     0.011      0.0000     0.0250     0          0
P-64             50               51               645.79     0.011      0.0000     0.0500     0          0
P-65             52               50               206.69     0.011      0.0000     0.0000     0          0
P-66             51               53               156.75     0.011      0.0250     0.0000     0          0
P-68             54               55               152.81     0.011      0.0000     0.0000     0          0
P-70             56               47               52.37      0.011      0.0000     0.0000     0          0
P-71             44               57               394.67     0.011      0.0250     0.0000     0          0
P-72             56               44               774.69     0.011      0.0750     0.1250     0          0
P-73             57               56               435.58     0.011      0.0500     0.0250     0          0
P-74             58               57               899.67     0.011      0.0000     0.0250     0          0
P-75             59               60               198.50     0.011      0.0375     0.0000     0          0
P-76             55               61               1116.15    0.011      0.0000     0.0125     0          0
P-78             52               53               631.80     0.011      0.0000     0.0250     0          0
P-79             45               52               350.97     0.011      0.0000     0.0000     0          0
P-81             61               5                226.03     0.011      0.0000     0.0000     0          0
P-82             60               61               186.77     0.011      0.0125     0.0125     0          0
P-83             58               60               337.24     0.011      0.0750     0.0125     0          0
P-84             62               58               173.09     0.011      0.0000     0.0000     0          0
P-85             62               2                784.45     0.011      0.0750     0.0000     0          0
P-86             59               62               86.39      0.011      0.0000     0.0250     0          0
P-87             4                59               732.93     0.011      0.0000     0.0000     0          0
P-88             2                4                193.78     0.011      0.0000     0.0500     0          0
P-89             Reservoir-65     6                1744.27    0.011      0.0000     0.0000     0          0
P-90             Reservoir-65     76               154.18     0.011      0.0000     0.0000     0          0
P-92             86               45               1635.69    0.011      0.0000     0.0000     0          0
P-93             76               8                1072.69    0.011      0.0000     0.0000     0          0
P-95             83               85               240.05     0.011      0.0000     0.0000     0          0
P-96             22               85               841.63     0.011      0.0000     0.0000     0          0
P-97             26               83               601.58     0.011      0.1000     0.0000     0          0
P-98             5                86               1600.00    0.011      0.0125     0.0000     0          0
P-100            54               84               180.00     0.011      0.0000     0.0000     0          0
P-102            83               85               240.00     0.011      0.0000     0.0000     0          0
P-103            Reservoir-43     87               10.00      0.011      0.0000     0.0000     0          0
P-104            55               89               179.54     0.011      0.0000     0.0000     0          0
P-105            89               53               331.40     0.011      0.0000     0.0250     0          0