[TITLE]
;;Project Title/Notes

[OPTIONS]
;;Option             Value
FLOW_UNITS           LPS
INFILTRATION         HORTON
FLOW_ROUTING         DYNWAVE
LINK_OFFSETS         DEPTH
MIN_SLOPE            0
ALLOW_PONDING        NO
SKIP_STEADY_STATE    NO

START_DATE           05/18/2022
START_TIME           00:00:00
REPORT_START_DATE    05/18/2022
REPORT_START_TIME    00:00:00
END_DATE             05/18/2022
END_TIME             23:59:00
SWEEP_START          01/01
SWEEP_END            12/31
DRY_DAYS             0
REPORT_STEP          01:00:00
WET_STEP             00:01:00
DRY_STEP             00:01:00
ROUTING_STEP         0.5
RULE_STEP            00:00:00

INERTIAL_DAMPING     PARTIAL
NORMAL_FLOW_LIMITED  BOTH
FORCE_MAIN_EQUATION  H-W
VARIABLE_STEP        0.00
LENGTHENING_STEP     0
MIN_SURFAREA         0.000001
MAX_TRIALS           20
HEAD_TOLERANCE       0.000005
SYS_FLOW_TOL         5
LAT_FLOW_TOL         5
MINIMUM_STEP         0.1
THREADS              1

[EVAPORATION]
;;Data Source    Parameters
;;-------------- ----------------
CONSTANT         0.0
DRY_ONLY         NO

[JUNCTIONS]
;;Name           Elevation  MaxDepth   InitDepth  SurDepth   Aponded
;;-------------- ---------- ---------- ---------- ---------- ----------
1                0.000000   0          0          100        0
2                0.000000   0          0          100        0
3                0.000000   0          0          100        0
4                0.000000   0          0          100        0
5                0.000000   0          0          100        0
6                0.000000   0          0          100        0
7                0.000000   0          0          100        0
8                0.000000   0          0          100        0
9                0.000000   0          0          100        0
10               0.000000   0          0          100        0
11               0.000000   0          0          100        0
12               0.000000   0          0          100        0
13               0.000000   0          0          100        0
14               0.000000   0          0          100        0
15               0.000000   0          0          100        0
16               0.000000   0          0          100        0
17               0.000000   0          0          100        0
18               0.000000   0          0          100        0
19               0.000000   0          0          100        0
20               0.000000   0          0          100        0
21               0.000000   0          0          100        0
22               0.000000   0          0          100        0
23               0.000000   0          0          100        0
24               0.000000   0          0          100        0
25               0.000000   0          0          100        0
26               0.000000   0          0          100        0
2-1-3            0.000216   0          0          100        0
2-2-3            0.000431   0          0          100        0
2-3-3            0.000647   0          0          100        0
2-4-3            0.000862   0          0          100        0
2-5-3            0.001078   0          0          100        0
2-6-3            0.001293   0          0          100        0
2-7-3            0.001509   0          0          100        0
2-8-3            0.001724   0          0          100        0
2-9-3            0.001940   0          0          100        0
2-10-3           0.002155   0          0          100        0
2-11-3           0.002371   0          0          100        0
2-12-3           0.002586   0          0          100        0
2-13-3           0.002802   0          0          100        0
2-14-3           0.003017   0          0          100        0
2-15-3           0.003233   0          0          100        0
2-16-3           0.003448   0          0          100        0
2-17-3           0.003664   0          0          100        0
2-18-3           0.003879   0          0          100        0
2-19-3           0.004095   0          0          100        0
2-20-3           0.004310   0          0          100        0
2-21-3           0.004526   0          0          100        0
2-22-3           0.004741   0          0          100        0
2-23-3           0.004957   0          0          100        0
2-24-3           0.005172   0          0          100        0
2-25-3           0.005388   0          0          100        0
2-26-3           0.005603   0          0          100        0
2-27-3           0.005819   0          0          100        0
2-28-3           0.006034   0          0          100        0
2-29-3           0.006250   0          0          100        0
2-30-3           0.006466   0          0          100        0
2-31-3           0.006681   0          0          100        0
2-32-3           0.006897   0          0          100        0
2-33-3           0.007112   0          0          100        0
2-34-3           0.007328   0          0          100        0
2-35-3           0.007543   0          0          100        0
2-36-3           0.007759   0          0          100        0
2-37-3           0.007974   0          0          100        0
2-38-3           0.008190   0          0          100        0
2-39-3           0.008405   0          0          100        0
2-40-3           0.008621   0          0          100        0
2-41-3           0.008836   0          0          100        0
2-42-3           0.009052   0          0          100        0
2-43-3           0.009267   0          0          100        0
2-44-3           0.009483   0          0          100        0
2-45-3           0.009698   0          0          100        0
2-46-3           0.009914   0          0          100        0
2-47-3           0.010129   0          0          100        0
2-48-3           0.010345   0          0          100        0
2-49-3           0.010560   0          0          100        0
2-50-3           0.010776   0          0          100        0
2-51-3           0.010991   0          0          100        0
2-52-3           0.011207   0          0          100        0
2-53-3           0.011422   0          0          100        0
2-54-3           0.011638   0          0          100        0
2-55-3           0.011853   0          0          100        0
2-56-3           0.012069   0          0          100        0
2-57-3           0.012284   0          0          100        0
3-1-4            0.000714   0          0          100        0
3-2-4            0.001429   0          0          100        0
3-3-4            0.002143   0          0          100        0
3-4-4            0.002857   0          0          100        0
3-5-4            0.003571   0          0          100        0
3-6-4            0.004286   0          0          100        0
3-7-4            0.005000   0          0          100        0
3-8-4            0.005714   0          0          100        0
3-9-4            0.006429   0          0          100        0
3-10-4           0.007143   0          0          100        0
3-11-4           0.007857   0          0          100        0
3-12-4           0.008571   0          0          100        0
3-13-4           0.009286   0          0          100        0
3-14-4           0.010000   0          0          100        0
3-15-4           0.010714   0          0          100        0
3-16-4           0.011429   0          0          100        0
3-17-4           0.012143   0          0          100        0
3-18-4           0.012857   0          0          100        0
3-19-4           0.013571   0          0          100        0
3-20-4           0.014286   0          0          100        0
3-21-4           0.015000   0          0          100        0
3-22-4           0.015714   0          0          100        0
3-23-4           0.016429   0          0          100        0
3-24-4           0.017143   0          0          100        0
3-25-4           0.017857   0          0          100        0
3-26-4           0.018571   0          0          100        0
3-27-4           0.019286   0          0          100        0
3-28-4           0.020000   0          0          100        0
3-29-4           0.020714   0          0          100        0
3-30-4           0.021429   0          0          100        0
3-31-4           0.022143   0          0          100        0
3-32-4           0.022857   0          0          100        0
3-33-4           0.023571   0          0          100        0
3-34-4           0.024286   0          0          100        0
1-1-16           0.000216   0          0          100        0
1-2-16           0.000431   0          0          100        0
1-3-16           0.000647   0          0          100        0
1-4-16           0.000862   0          0          100        0
1-5-16           0.001078   0          0          100        0
1-6-16           0.001293   0          0          100        0
1-7-16           0.001509   0          0          100        0
1-8-16           0.001724   0          0          100        0
1-9-16           0.001940   0          0          100        0
1-10-16          0.002155   0          0          100        0
1-11-16          0.002371   0          0          100        0
1-12-16          0.002586   0          0          100        0
1-13-16          0.002802   0          0          100        0
1-14-16          0.003017   0          0          100        0
1-15-16          0.003233   0          0          100        0
1-16-16          0.003448   0          0          100        0
1-17-16          0.003664   0          0          100        0
1-18-16          0.003879   0          0          100        0
1-19-16          0.004095   0          0          100        0
1-20-16          0.004310   0          0          100        0
1-21-16          0.004526   0          0          100        0
1-22-16          0.004741   0          0          100        0
1-23-16          0.004957   0          0          100        0
1-24-16          0.005172   0          0          100        0
1-25-16          0.005388   0          0          100        0
1-26-16          0.005603   0          0          100        0
1-27-16          0.005819   0          0          100        0
1-28-16          0.006034   0          0          100        0
1-29-16          0.006250   0          0          100        0
1-30-16          0.006466   0          0          100        0
1-31-16          0.006681   0          0          100        0
1-32-16          0.006897   0          0          100        0
1-33-16          0.007112   0          0          100        0
1-34-16          0.007328   0          0          100        0
1-35-16          0.007543   0          0          100        0
1-36-16          0.007759   0          0          100        0
1-37-16          0.007974   0          0          100        0
1-38-16          0.008190   0          0          100        0
1-39-16          0.008405   0          0          100        0
1-40-16          0.008621   0          0          100        0
1-41-16          0.008836   0          0          100        0
1-42-16          0.009052   0          0          100        0
1-43-16          0.009267   0          0          100        0
1-44-16          0.009483   0          0          100        0
1-45-16          0.009698   0          0          100        0
1-46-16          0.009914   0          0          100        0
1-47-16          0.010129   0          0          100        0
1-48-16          0.010345   0          0          100        0
1-49-16          0.010560   0          0          100        0
1-50-16          0.010776   0          0          100        0
1-51-16          0.010991   0          0          100        0
1-52-16          0.011207   0          0          100        0
1-53-16          0.011422   0          0          100        0
1-54-16          0.011638   0          0          100        0
1-55-16          0.011853   0          0          100        0
1-56-16          0.012069   0          0          100        0
1-57-16          0.012284   0          0          100        0
4-1-5            0.000000   0          0          100        0
4-2-5            0.000000   0          0          100        0
4-3-5            0.000000   0          0          100        0
4-4-5            0.000000   0          0          100        0
4-5-5            0.000000   0          0          100        0
4-6-5            0.000000   0          0          100        0
4-7-5            0.000000   0          0          100        0
4-8-5            0.000000   0          0          100        0
4-9-5            0.000000   0          0          100        0
4-10-5           0.000000   0          0          100        0
4-11-5           0.000000   0          0          100        0
4-12-5           0.000000   0          0          100        0
4-13-5           0.000000   0          0          100        0
4-14-5           0.000000   0          0          100        0
4-15-5           0.000000   0          0          100        0
4-16-5           0.000000   0          0          100        0
4-17-5           0.000000   0          0          100        0
4-18-5           0.000000   0          0          100        0
4-19-5           0.000000   0          0          100        0
4-20-5           0.000000   0          0          100        0
4-21-5           0.000000   0          0          100        0
4-22-5           0.000000   0          0          100        0
4-23-5           0.000000   0          0          100        0
4-24-5           0.000000   0          0          100        0
4-25-5           0.000000   0          0          100        0
4-26-5           0.000000   0          0          100        0
4-27-5           0.000000   0          0          100        0
4-28-5           0.000000   0          0          100        0
4-29-5           0.000000   0          0          100        0
4-30-5           0.000000   0          0          100        0
4-31-5           0.000000   0          0          100        0
4-32-5           0.000000   0          0          100        0
4-33-5           0.000000   0          0          100        0
4-34-5           0.000000   0          0          100        0
4-35-5           0.000000   0          0          100        0
4-36-5           0.000000   0          0          100        0
4-37-5           0.000000   0          0          100        0
4-38-5           0.000000   0          0          100        0
4-39-5           0.000000   0          0          100        0
4-40-5           0.000000   0          0          100        0
4-41-5           0.000000   0          0          100        0
4-42-5           0.000000   0          0          100        0
4-43-5           0.000000   0          0          100        0
4-44-5           0.000000   0          0          100        0
4-45-5           0.000000   0          0          100        0
4-46-5           0.000000   0          0          100        0
4-47-5           0.000000   0          0          100        0
4-48-5           0.000000   0          0          100        0
4-49-5           0.000000   0          0          100        0
4-50-5           0.000000   0          0          100        0
4-51-5           0.000000   0          0          100        0
4-52-5           0.000000   0          0          100        0
5-1-7            0.016667   0          0          100        0
5-2-7            0.033333   0          0          100        0
5-1-6            0.000000   0          0          100        0
5-2-6            0.000000   0          0          100        0
5-3-6            0.000000   0          0          100        0
5-4-6            0.000000   0          0          100        0
5-5-6            0.000000   0          0          100        0
5-6-6            0.000000   0          0          100        0
5-7-6            0.000000   0          0          100        0
7-1-10           0.070588   0          0          100        0
7-2-10           0.066176   0          0          100        0
7-3-10           0.061765   0          0          100        0
7-4-10           0.057353   0          0          100        0
7-5-10           0.052941   0          0          100        0
7-6-10           0.048529   0          0          100        0
7-7-10           0.044118   0          0          100        0
7-8-10           0.039706   0          0          100        0
7-9-10           0.035294   0          0          100        0
7-10-10          0.030882   0          0          100        0
7-11-10          0.026471   0          0          100        0
7-12-10          0.022059   0          0          100        0
7-13-10          0.017647   0          0          100        0
7-14-10          0.013235   0          0          100        0
7-15-10          0.008824   0          0          100        0
7-16-10          0.004412   0          0          100        0
6-1-13           0.000962   0          0          100        0
6-2-13           0.001923   0          0          100        0
6-3-13           0.002885   0          0          100        0
6-4-13           0.003846   0          0          100        0
6-5-13           0.004808   0          0          100        0
6-6-13           0.005769   0          0          100        0
6-7-13           0.006731   0          0          100        0
6-8-13           0.007692   0          0          100        0
6-9-13           0.008654   0          0          100        0
6-10-13          0.009615   0          0          100        0
6-11-13          0.010577   0          0          100        0
6-12-13          0.011538   0          0          100        0
6-13-13          0.012500   0          0          100        0
6-14-13          0.013462   0          0          100        0
6-15-13          0.014423   0          0          100        0
6-16-13          0.015385   0          0          100        0
6-17-13          0.016346   0          0          100        0
6-18-13          0.017308   0          0          100        0
6-19-13          0.018269   0          0          100        0
6-20-13          0.019231   0          0          100        0
6-21-13          0.020192   0          0          100        0
6-22-13          0.021154   0          0          100        0
6-23-13          0.022115   0          0          100        0
6-24-13          0.023077   0          0          100        0
6-25-13          0.024038   0          0          100        0
7-1-8            0.000000   0          0          100        0
7-2-8            0.000000   0          0          100        0
7-3-8            0.000000   0          0          100        0
7-4-8            0.000000   0          0          100        0
7-5-8            0.000000   0          0          100        0
7-6-8            0.000000   0          0          100        0
8-1-11           0.069231   0          0          100        0
8-2-11           0.063462   0          0          100        0
8-3-11           0.057692   0          0          100        0
8-4-11           0.051923   0          0          100        0
8-5-11           0.046154   0          0          100        0
8-6-11           0.040385   0          0          100        0
8-7-11           0.034615   0          0          100        0
8-8-11           0.028846   0          0          100        0
8-9-11           0.023077   0          0          100        0
8-10-11          0.017308   0          0          100        0
8-11-11          0.011538   0          0          100        0
8-12-11          0.005769   0          0          100        0
9-1-10           0.000000   0          0          100        0
9-2-10           0.000000   0          0          100        0
9-3-10           0.000000   0          0          100        0
9-4-10           0.000000   0          0          100        0
9-5-10           0.000000   0          0          100        0
11-1-9           0.000000   0          0          100        0
11-2-9           0.000000   0          0          100        0
11-3-9           0.000000   0          0          100        0
11-4-9           0.000000   0          0          100        0
8-1-18           0.004167   0          0          100        0
8-2-18           0.008333   0          0          100        0
8-3-18           0.012500   0          0          100        0
8-4-18           0.016667   0          0          100        0
8-5-18           0.020833   0          0          100        0
8-6-18           0.025000   0          0          100        0
8-7-18           0.029167   0          0          100        0
8-8-18           0.033333   0          0          100        0
8-9-18           0.037500   0          0          100        0
8-10-18          0.041667   0          0          100        0
8-11-18          0.045833   0          0          100        0
8-12-18          0.050000   0          0          100        0
8-13-18          0.054167   0          0          100        0
8-14-18          0.058333   0          0          100        0
8-15-18          0.062500   0          0          100        0
8-16-18          0.066667   0          0          100        0
8-17-18          0.070833   0          0          100        0
12-1-14          0.049405   0          0          100        0
12-2-14          0.048810   0          0          100        0
12-3-14          0.048214   0          0          100        0
12-4-14          0.047619   0          0          100        0
12-5-14          0.047024   0          0          100        0
12-6-14          0.046429   0          0          100        0
12-7-14          0.045833   0          0          100        0
12-8-14          0.045238   0          0          100        0
12-9-14          0.044643   0          0          100        0
12-10-14         0.044048   0          0          100        0
12-11-14         0.043452   0          0          100        0
12-12-14         0.042857   0          0          100        0
12-13-14         0.042262   0          0          100        0
12-14-14         0.041667   0          0          100        0
12-15-14         0.041071   0          0          100        0
12-16-14         0.040476   0          0          100        0
12-17-14         0.039881   0          0          100        0
12-18-14         0.039286   0          0          100        0
12-19-14         0.038690   0          0          100        0
12-20-14         0.038095   0          0          100        0
12-21-14         0.037500   0          0          100        0
12-22-14         0.036905   0          0          100        0
12-23-14         0.036310   0          0          100        0
12-24-14         0.035714   0          0          100        0
12-25-14         0.035119   0          0          100        0
12-26-14         0.034524   0          0          100        0
12-27-14         0.033929   0          0          100        0
12-28-14         0.033333   0          0          100        0
12-29-14         0.032738   0          0          100        0
12-30-14         0.032143   0          0          100        0
12-31-14         0.031548   0          0          100        0
12-32-14         0.030952   0          0          100        0
12-33-14         0.030357   0          0          100        0
12-34-14         0.029762   0          0          100        0
12-35-14         0.029167   0          0          100        0
12-36-14         0.028571   0          0          100        0
12-37-14         0.027976   0          0          100        0
12-38-14         0.027381   0          0          100        0
12-39-14         0.026786   0          0          100        0
12-40-14         0.026190   0          0          100        0
12-41-14         0.025595   0          0          100        0
13-1-12          0.000000   0          0          100        0
13-2-12          0.000000   0          0          100        0
21-1-13          0.023750   0          0          100        0
21-2-13          0.022500   0          0          100        0
21-3-13          0.021250   0          0          100        0
21-4-13          0.020000   0          0          100        0
21-5-13          0.018750   0          0          100        0
21-6-13          0.017500   0          0          100        0
21-7-13          0.016250   0          0          100        0
21-8-13          0.015000   0          0          100        0
21-9-13          0.013750   0          0          100        0
21-10-13         0.012500   0          0          100        0
21-11-13         0.011250   0          0          100        0
21-12-13         0.010000   0          0          100        0
21-13-13         0.008750   0          0          100        0
21-14-13         0.007500   0          0          100        0
21-15-13         0.006250   0          0          100        0
21-16-13         0.005000   0          0          100        0
21-17-13         0.003750   0          0          100        0
21-18-13         0.002500   0          0          100        0
21-19-13         0.001250   0          0          100        0
15-1-16          0.023077   0          0          100        0
15-2-16          0.021154   0          0          100        0
15-3-16          0.019231   0          0          100        0
15-4-16          0.017308   0          0          100        0
15-5-16          0.015385   0          0          100        0
15-6-16          0.013462   0          0          100        0
15-7-16          0.011538   0          0          100        0
15-8-16          0.009615   0          0          100        0
15-9-16          0.007692   0          0          100        0
15-10-16         0.005769   0          0          100        0
15-11-16         0.003846   0          0          100        0
15-12-16         0.001923   0          0          100        0
15-1-17          0.036765   0          0          100        0
15-2-17          0.036029   0          0          100        0
15-3-17          0.035294   0          0          100        0
15-4-17          0.034559   0          0          100        0
15-5-17          0.033824   0          0          100        0
15-6-17          0.033088   0          0          100        0
15-7-17          0.032353   0          0          100        0
15-8-17          0.031618   0          0          100        0
15-9-17          0.030882   0          0          100        0
15-10-17         0.030147   0          0          100        0
15-11-17         0.029412   0          0          100        0
15-12-17         0.028676   0          0          100        0
15-13-17         0.027941   0          0          100        0
15-14-17         0.027206   0          0          100        0
15-15-17         0.026471   0          0          100        0
15-16-17         0.025735   0          0          100        0
15-17-17         0.025000   0          0          100        0
15-18-17         0.024265   0          0          100        0
15-19-17         0.023529   0          0          100        0
15-20-17         0.022794   0          0          100        0
15-21-17         0.022059   0          0          100        0
15-22-17         0.021324   0          0          100        0
15-23-17         0.020588   0          0          100        0
15-24-17         0.019853   0          0          100        0
15-25-17         0.019118   0          0          100        0
15-26-17         0.018382   0          0          100        0
15-27-17         0.017647   0          0          100        0
15-28-17         0.016912   0          0          100        0
15-29-17         0.016176   0          0          100        0
15-30-17         0.015441   0          0          100        0
15-31-17         0.014706   0          0          100        0
15-32-17         0.013971   0          0          100        0
15-33-17         0.013235   0          0          100        0
17-1-16          0.000000   0          0          100        0
17-2-16          0.000000   0          0          100        0
17-3-16          0.000000   0          0          100        0
17-4-16          0.000000   0          0          100        0
17-5-16          0.000000   0          0          100        0
17-6-16          0.000000   0          0          100        0
17-7-16          0.000000   0          0          100        0
17-8-16          0.000000   0          0          100        0
17-9-16          0.000000   0          0          100        0
17-10-16         0.000000   0          0          100        0
17-11-16         0.000000   0          0          100        0
17-12-16         0.000000   0          0          100        0
17-13-16         0.000000   0          0          100        0
17-14-16         0.000000   0          0          100        0
17-15-16         0.000000   0          0          100        0
17-16-16         0.000000   0          0          100        0
17-17-16         0.000000   0          0          100        0
17-18-16         0.000000   0          0          100        0
17-19-16         0.000000   0          0          100        0
17-20-16         0.000000   0          0          100        0
18-1-21          0.050000   0          0          100        0
18-2-21          0.025000   0          0          100        0
18-1-19          0.000000   0          0          100        0
18-2-19          0.000000   0          0          100        0
18-3-19          0.000000   0          0          100        0
18-4-19          0.000000   0          0          100        0
18-5-19          0.000000   0          0          100        0
18-6-19          0.000000   0          0          100        0
18-7-19          0.000000   0          0          100        0