[TITLE]
;;Project Title/Notes

[OPTIONS]
;;Option             Value
FLOW_UNITS           LPS
INFILTRATION         HORTON
FLOW_ROUTING         DYNWAVE
LINK_OFFSETS         DEPTH
MIN_SLOPE            0
ALLOW_PONDING        NO
SKIP_STEADY_STATE    NO

START_DATE           05/18/2022
START_TIME           00:00:00
REPORT_START_DATE    05/18/2022
REPORT_START_TIME    00:00:00
END_DATE             05/18/2022
END_TIME             23:59:00
SWEEP_START          01/01
SWEEP_END            12/31
DRY_DAYS             0
REPORT_STEP          01:00:00
WET_STEP             00:01:00
DRY_STEP             00:01:00
ROUTING_STEP         0:00:01
RULE_STEP            00:00:00

INERTIAL_DAMPING     PARTIAL
NORMAL_FLOW_LIMITED  BOTH
FORCE_MAIN_EQUATION  H-W
VARIABLE_STEP        0.00
LENGTHENING_STEP     0
MIN_SURFAREA         0.000001
MAX_TRIALS           20
HEAD_TOLERANCE       0.000005
SYS_FLOW_TOL         5
LAT_FLOW_TOL         5
MINIMUM_STEP         0.1
THREADS              1

[EVAPORATION]
;;Data Source    Parameters
;;-------------- ----------------
CONSTANT         0.0
DRY_ONLY         NO

[JUNCTIONS]
;;Name           Elevation  MaxDepth   InitDepth  SurDepth   Aponded
;;-------------- ---------- ---------- ---------- ---------- ----------
1                0.0        0          0          100        0
2                0.0        0          0          100        0
3                0.0        0          0          100        0
4                0.0        0          0          100        0
5                0.0        0          0          100        0
6                0.0        0          0          100        0
7                0.0        0          0          100        0
8                0.0        0          0          100        0
9                0.0        0          0          100        0
10               0.0        0          0          100        0
11               0.0        0          0          100        0
12               0.0        0          0          100        0
13               0.0        0          0          100        0
14               0.0        0          0          100        0
15               0.0        0          0          100        0
16               0.0        0          0          100        0
17               0.0        0          0          100        0
18               0.0        0          0          100        0
19               0.0        0          0          100        0
20               0.0        0          0          100        0
21               0.0        0          0          100        0
22               0.0        0          0          100        0
23               0.0        0          0          100        0
24               0.0        0          0          100        0
25               0.0        0          0          100        0
26               0.0        0          0          100        0

[OUTFALLS]
;;Name           Elevation  Type       Stage Data       Gated    Route To
;;-------------- ---------- ---------- ---------------- -------- ----------------
Outfall1         0.0        FREE                        NO
Outfall2         0.0        FREE                        NO
Outfall3         0.0        FREE                        NO
Outfall4         0.0        FREE                        NO
Outfall5         0.0        FREE                        NO
Outfall6         0.0        FREE                        NO
Outfall7         0.0        FREE                        NO
Outfall8         0.0        FREE                        NO
Outfall9         0.0        FREE                        NO
Outfall10        0.0        FREE                        NO
Outfall11        0.0        FREE                        NO
Outfall12        0.0        FREE                        NO
Outfall13        0.0        FREE                        NO
Outfall14        0.0        FREE                        NO
Outfall15        0.0        FREE                        NO
Outfall16        0.0        FREE                        NO
Outfall17        0.0        FREE                        NO
Outfall18        0.0        FREE                        NO
Outfall19        0.0        FREE                        NO
Outfall20        0.0        FREE                        NO
Outfall21        0.0        FREE                        NO
Outfall22        0.0        FREE                        NO
Outfall23        0.0        FREE                        NO
Outfall24        0.0        FREE                        NO
Outfall25        0.0        FREE                        NO
L_Outfall1       0.0        FREE                        NO
L_Outfall2       0.0        FREE                        NO
L_Outfall3       0.0        FREE                        NO
L_Outfall4       0.0        FREE                        NO
L_Outfall5       0.0        FREE                        NO
L_Outfall6       0.0        FREE                        NO
L_Outfall7       0.0        FREE                        NO
L_Outfall8       0.0        FREE                        NO
L_Outfall9       0.0        FREE                        NO
L_Outfall10      0.0        FREE                        NO
L_Outfall11      0.0        FREE                        NO
L_Outfall12      0.0        FREE                        NO
L_Outfall13      0.0        FREE                        NO
L_Outfall14      0.0        FREE                        NO
L_Outfall15      0.0        FREE                        NO
L_Outfall16      0.0        FREE                        NO
L_Outfall17      0.0        FREE                        NO
L_Outfall18      0.0        FREE                        NO
L_Outfall19      0.0        FREE                        NO
L_Outfall20      0.0        FREE                        NO
L_Outfall21      0.0        FREE                        NO
L_Outfall22      0.0        FREE                        NO
L_Outfall23      0.0        FREE                        NO
L_Outfall24      0.0        FREE                        NO
L_Outfall25      0.0        FREE                        NO

[STORAGE]
;;Name           Elev.    MaxDepth   InitDepth  Shape      Curve Type/Params            SurDepth  Fevap    Psi      Ksat     IMD
;;-------------- -------- ---------- ----------- ---------- ---------------------------- --------- --------          -------- --------
Reservoir-27     5.0      100        30.0       TABULAR    Source27                     0         0
StorageforNode1  0.0      1          0.0        FUNCTIONAL 0          0          59.616   0         0
StorageforNode2  0.0      1          0.0        FUNCTIONAL 0          0          7.776    0         0
StorageforNode3  0.0      1          0.0        FUNCTIONAL 0          0          39.744   0         0
StorageforNode4  0.0      1          0.0        FUNCTIONAL 0          0          111.024  0         0
StorageforNode5  0.0      1          0.0        FUNCTIONAL 0          0          122.256  0         0
StorageforNode6  0.0      1          0.0        FUNCTIONAL 0          0          361.152  0         0
StorageforNode7  0.0      1          0.0        FUNCTIONAL 0          0          147.744  0         0
StorageforNode8  0.0      1          0.0        FUNCTIONAL 0          0          230.256  0         0
StorageforNode9  0.0      1          0.0        FUNCTIONAL 0          0          65.664   0         0
StorageforNode10 0.0      1          0.0        FUNCTIONAL 0          0          37.152   0         0
StorageforNode11 0.0      1          0.0        FUNCTIONAL 0          0          98.064   0         0
StorageforNode12 0.0      1          0.0        FUNCTIONAL 0          0          56.592   0         0
StorageforNode13 0.0      1          0.0        FUNCTIONAL 0          0          368.064  0         0
StorageforNode14 0.0      1          0.0        FUNCTIONAL 0          0          38.016   0         0
StorageforNode15 0.0      1          0.0        FUNCTIONAL 0          0          9.504    0         0
StorageforNode16 0.0      1          0.0        FUNCTIONAL 0          0          16.848   0         0
StorageforNode17 0.0      1          0.0        FUNCTIONAL 0          0          19.44    0         0
StorageforNode18 0.0      1          0.0        FUNCTIONAL 0          0          121.824  0         0
StorageforNode19 0.0      1          0.0        FUNCTIONAL 0          0          1.296    0         0
StorageforNode20 0.0      1          0.0        FUNCTIONAL 0          0          13.392   0         0
StorageforNode21 0.0      1          0.0        FUNCTIONAL 0          0          112.32   0         0
StorageforNode22 0.0      1          0.0        FUNCTIONAL 0          0          44.496   0         0
StorageforNode23 0.0      1          0.0        FUNCTIONAL 0          0          43.2     0         0
StorageforNode24 0.0      1          0.0        FUNCTIONAL 0          0          22.896   0         0
StorageforNode25 0.0      1          0.0        FUNCTIONAL 0          0          32.832   0         0

[CONDUITS]
;;Name           From Node        To Node          Length     Roughness  InOffset   OutOffset  InitFlow   MaxFlow
;;-------------- ---------------- ---------------- ---------- ---------- ---------- ---------- ---------- ----------
P-1              1                2                10.1       0.011      0.0125     0.0125     0          0
P-2              2                3                2874.5     0.011      0.0000     0.0125     0          0
P-3              3                4                1732.8     0.011      0.0000     0.0250     0          0
P-4              1                16               2851.4     0.011      0.0000     0.0125     0          0
P-5              4                5                2648.0     0.011      0.0000     0.0000     0          0
P-6              5                7                144.5      0.011      0.0000     0.0500     0          0
P-7              5                6                364.9      0.011      0.0000     0.0000     0          0
P-8              7                10               817.4      0.011      0.0750     0.0000     0          0
P-9              6                13               1269.8     0.011      0.0000     0.0250     0          0
P-10             7                8                332.7      0.011      0.0000     0.0000     0          0
P-11             8                11               628.3      0.011      0.0750     0.0000     0          0
P-12             9                10               269.7      0.011      0.0000     0.0000     0          0
P-13             11               9                241.3      0.011      0.0000     0.0000     0          0
P-14             8                18               887.8      0.011      0.0000     0.0750     0          0
P-15             12               14               2055.9     0.011      0.0500     0.0250     0          0
P-16             13               12               130.9      0.011      0.0000     0.0000     0          0
P-17             21               13               991.1      0.011      0.0250     0.0000     0          0
P-18             14               15               6.8        0.011      0.0000     0.0000     0          0
P-19             15               16               607.2      0.011      0.0250     0.0000     0          0
P-20             15               17               1669.7     0.011      0.0375     0.0125     0          0
P-21             17               16               1046.8     0.011      0.0000     0.0000     0          0
P-22             18               21               132.1      0.011      0.0750     0.0000     0          0
P-23             18               19               392.5      0.011      0.0000     0.0000     0          0
P-24             19               20               154.5      0.011      0.0000     0.0000     0          0
P-25             22               23               2469.3     0.011      0.0250     0.0000     0          0
P-26             22               19               1593.6     0.011      0.0000     0.1000     0          0
P-27             24               23               2567.0     0.011      0.0000     0.0375     0          0
P-28             25               24               2337.7     0.011      0.0250     0.0125     0          0
P-29             17               25               2452.7     0.011      0.0000     0.0000     0          0
P-30             Reservoir-27     26               19.6       0.011      0.0000     0.0000     0          0
P-32             20               11               490.9      0.011      0.1500     0.0000     0          0
P-31             26               19               9.6        0.011      0.0000     0.0000     0          0

[OUTLETS]
;;Name           From Node        To Node          Offset     Type            QTable/Qcoeff    Qexpon     Gated
;;-------------- ---------------- ---------------- ---------- --------------- ---------------- ---------- --------
Outlet1          1                StorageforNode1  0.0625     FUNCTIONAL/DEPTH 0.436394         0.5        YES
Outlet2          2                StorageforNode2  0.0625     FUNCTIONAL/DEPTH 0.056921         0.5        YES
Outlet3          3                StorageforNode3  0.0750     FUNCTIONAL/DEPTH 0.29093          0.5        YES
Outlet4          4                StorageforNode4  0.1000     FUNCTIONAL/DEPTH 0.812705         0.5        YES
Outlet5          5                StorageforNode5  0.1000     FUNCTIONAL/DEPTH 0.894925         0.5        YES
Outlet6          6                StorageforNode6  0.1000     FUNCTIONAL/DEPTH 2.643664         0.5        YES
Outlet7          7                StorageforNode7  0.1500     FUNCTIONAL/DEPTH 1.081499         0.5        YES
Outlet8          8                StorageforNode8  0.1500     FUNCTIONAL/DEPTH 1.685494         0.5        YES
Outlet9          9                StorageforNode9  0.0750     FUNCTIONAL/DEPTH 0.480666         0.5        YES
Outlet10         10               StorageforNode10 0.0750     FUNCTIONAL/DEPTH 0.271956         0.5        YES
Outlet11         11               StorageforNode11 0.0750     FUNCTIONAL/DEPTH 0.717837         0.5        YES
Outlet12         12               StorageforNode12 0.1250     FUNCTIONAL/DEPTH 0.414258         0.5        YES
Outlet13         13               StorageforNode13 0.1250     FUNCTIONAL/DEPTH 2.694261         0.5        YES
Outlet14         14               StorageforNode14 0.1000     FUNCTIONAL/DEPTH 0.27828          0.5        YES
Outlet15         15               StorageforNode15 0.1000     FUNCTIONAL/DEPTH 0.06957          0.5        YES
Outlet16         16               StorageforNode16 0.0750     FUNCTIONAL/DEPTH 0.123329         0.5        YES
Outlet17         17               StorageforNode17 0.0750     FUNCTIONAL/DEPTH 0.142302         0.5        YES
Outlet18         18               StorageforNode18 0.2250     FUNCTIONAL/DEPTH 0.891762         0.5        YES
Outlet19         19               StorageforNode19 0.2250     FUNCTIONAL/DEPTH 0.009487         0.5        YES
Outlet20         20               StorageforNode20 0.2250     FUNCTIONAL/DEPTH 0.098031         0.5        YES
Outlet21         21               StorageforNode21 0.1500     FUNCTIONAL/DEPTH 0.822192         0.5        YES
Outlet22         22               StorageforNode22 0.1250     FUNCTIONAL/DEPTH 0.325715         0.5        YES
Outlet23         23               StorageforNode23 0.1000     FUNCTIONAL/DEPTH 0.316228         0.5        YES
Outlet24         24               StorageforNode24 0.0625     FUNCTIONAL/DEPTH 0.167601         0.5        YES
Outlet25         25               StorageforNode25 0.0750     FUNCTIONAL/DEPTH 0.240333         0.5        YES
DemandOutlet1    StorageforNode1  Outfall1         0.0000     TABULAR/DEPTH   Demand1                     YES
DemandOutlet2    StorageforNode2  Outfall2         0.0000     TABULAR/DEPTH   Demand2                     YES
DemandOutlet3    StorageforNode3  Outfall3         0.0000     TABULAR/DEPTH   Demand3                     YES
DemandOutlet4    StorageforNode4  Outfall4         0.0000     TABULAR/DEPTH   Demand4                     YES
DemandOutlet5    StorageforNode5  Outfall5         0.0000     TABULAR/DEPTH   Demand5                     YES
DemandOutlet6    StorageforNode6  Outfall6         0.0000     TABULAR/DEPTH   Demand6                     YES
DemandOutlet7    StorageforNode7  Outfall7         0.0000     TABULAR/DEPTH   Demand7                     YES
DemandOutlet8    StorageforNode8  Outfall8         0.0000     TABULAR/DEPTH   Demand8                     YES
DemandOutlet9    StorageforNode9  Outfall9         0.0000     TABULAR/DEPTH   Demand9                     YES
DemandOutlet10   StorageforNode10 Outfall10        0.0000     TABULAR/DEPTH   Demand10                    YES
DemandOutlet11   StorageforNode11 Outfall11        0.0000     TABULAR/DEPTH   Demand11                    YES
DemandOutlet12   StorageforNode12 Outfall12        0.0000     TABULAR/DEPTH   Demand12                    YES
DemandOutlet13   StorageforNode13 Outfall13        0.0000     TABULAR/DEPTH   Demand13                    YES
DemandOutlet14   StorageforNode14 Outfall14        0.0000     TABULAR/DEPTH   Demand14                    YES
DemandOutlet15   StorageforNode15 Outfall15        0.0000     TABULAR/DEPTH   Demand15                    YES
DemandOutlet16   StorageforNode16 Outfall16        0.0000     TABULAR/DEPTH   Demand16                    YES
DemandOutlet17   StorageforNode17 Outfall17        0.0000     TABULAR/DEPTH   Demand17                    YES
DemandOutlet18   StorageforNode18 Outfall18        0.0000     TABULAR/DEPTH   Demand18                    YES
DemandOutlet19   StorageforNode19 Outfall19        0.0000     TABULAR/DEPTH   Demand19                    YES
DemandOutlet20   StorageforNode20 Outfall20        0.0000     TABULAR/DEPTH   Demand20                    YES
DemandOutlet21   StorageforNode21 Outfall21        0.0000     TABULAR/DEPTH   Demand21                    YES
DemandOutlet22   StorageforNode22 Outfall22        0.0000     TABULAR/DEPTH   Demand22                    YES
DemandOutlet23   StorageforNode23 Outfall23        0.0000     TABULAR/DEPTH   Demand23                    YES
DemandOutlet24   StorageforNode24 Outfall24        0.0000     TABULAR/DEPTH   Demand24                    YES
DemandOutlet25   StorageforNode25 Outfall25        0.0000     TABULAR/DEPTH   Demand25                    YES
LeakforNode1     1                L_Outfall1       0.0625     FUNCTIONAL/DEPTH 0.043639         0.5        YES
LeakforNode2     2                L_Outfall2       0.0625     FUNCTIONAL/DEPTH 0.005692         0.5        YES
LeakforNode3     3                L_Outfall3       0.0750     FUNCTIONAL/DEPTH 0.029093         0.5        YES
LeakforNode4     4                L_Outfall4       0.1000     FUNCTIONAL/DEPTH 0.081271         0.5        YES
LeakforNode5     5                L_Outfall5       0.1000     FUNCTIONAL/DEPTH 0.089492         0.5        YES
LeakforNode6     6                L_Outfall6       0.1000     FUNCTIONAL/DEPTH 0.264366         0.5        YES
LeakforNode7     7                L_Outfall7       0.1500     FUNCTIONAL/DEPTH 0.10815          0.5        YES
LeakforNode8     8                L_Outfall8       0.1500     FUNCTIONAL/DEPTH 0.168549         0.5        YES
LeakforNode9     9                L_Outfall9       0.0750     FUNCTIONAL/DEPTH 0.048067         0.5        YES
LeakforNode10    10               L_Outfall10      0.0750     FUNCTIONAL/DEPTH 0.027196         0.5        YES
LeakforNode11    11               L_Outfall11      0.0750     FUNCTIONAL/DEPTH 0.071784         0.5        YES
LeakforNode12    12               L_Outfall12      0.1250     FUNCTIONAL/DEPTH 0.041426         0.5        YES
LeakforNode13    13               L_Outfall13      0.1250     FUNCTIONAL/DEPTH 0.269426         0.5        YES
LeakforNode14    14               L_Outfall14      0.1000     FUNCTIONAL/DEPTH 0.027828         0.5        YES
LeakforNode15    15               L_Outfall15      0.1000     FUNCTIONAL/DEPTH 0.006957         0.5        YES
LeakforNode16    16               L_Outfall16      0.0750     FUNCTIONAL/DEPTH 0.012333         0.5        YES
LeakforNode17    17               L_Outfall17      0.0750     FUNCTIONAL/DEPTH 0.01423          0.5        YES
LeakforNode18    18               L_Outfall18      0.2250     FUNCTIONAL/DEPTH 0.089176         0.5        YES
LeakforNode19    19               L_Outfall19      0.2250     FUNCTIONAL/DEPTH 0.000949         0.5        YES
LeakforNode20    20               L_Outfall20      0.2250     FUNCTIONAL/DEPTH 0.009803         0.5        YES
LeakforNode21    21               L_Outfall21      0.1500     FUNCTIONAL/DEPTH 0.082219         0.5        YES
LeakforNode22    22               L_Outfall22      0.1250     FUNCTIONAL/DEPTH 0.032571         0.5        YES
LeakforNode23    23               L_Outfall23      0.1000     FUNCTIONAL/DEPTH 0.031623         0.5        YES
LeakforNode24    24               L_Outfall24      0.0625     FUNCTIONAL/DEPTH 0.01676          0.5        YES
LeakforNode25    25               L_Outfall25      0.0750     FUNCTIONAL/DEPTH 0.024033         0.5        YES

[XSECTIONS]
;;Link           Shape        Geom1            Geom2      Geom3      Geom4      Barrels    Culvert
;;-------------- ------------ ---------------- ---------- ---------- ---------- ---------- ----------
P-1              FORCE_MAIN   0.100            130        0          0          1
P-2              FORCE_MAIN   0.125            130        0          0          1
P-3              FORCE_MAIN   0.150            130        0          0          1
P-4              FORCE_MAIN   0.125            130        0          0          1
P-5              FORCE_MAIN   0.200            130        0          0          1
P-6              FORCE_MAIN   0.200            130        0          0          1
P-7              FORCE_MAIN   0.200            130        0          0          1
P-8              FORCE_MAIN   0.150            130        0          0          1
P-9              FORCE_MAIN   0.200            130        0          0          1
P-10             FORCE_MAIN   0.300            130        0          0          1
P-11             FORCE_MAIN   0.150            130        0          0          1
P-12             FORCE_MAIN   0.150            130        0          0          1
P-13             FORCE_MAIN   0.150            130        0          0          1
P-14             FORCE_MAIN   0.300            130        0          0          1
P-15             FORCE_MAIN   0.150            130        0          0          1
P-16             FORCE_MAIN   0.250            130        0          0          1
P-17             FORCE_MAIN   0.250            130        0          0          1
P-18             FORCE_MAIN   0.200            130        0          0          1
P-19             FORCE_MAIN   0.150            130        0          0          1
P-20             FORCE_MAIN   0.125            130        0          0          1
P-21             FORCE_MAIN   0.150            130        0          0          1
P-22             FORCE_MAIN   0.300            130        0          0          1
P-23             FORCE_MAIN   0.450            130        0          0          1
P-24             FORCE_MAIN   0.450            130        0          0          1
P-25             FORCE_MAIN   0.200            130        0          0          1
P-26             FORCE_MAIN   0.250            130        0          0          1
P-27             FORCE_MAIN   0.125            130        0          0          1
P-28             FORCE_MAIN   0.100            130        0          0          1
P-29             FORCE_MAIN   0.150            130        0          0          1
P-30             FORCE_MAIN   0.450            130        0          0          1
P-32             FORCE_MAIN   0.150            130        0          0          1
P-31             FORCE_MAIN   0.450            130        0          0          1

[CONTROLS]


Rule Outlet1
IF NODE StorageforNode1 DEPTH >= 0.9
THEN OUTLET Outlet1 SETTING = CURVE ControlOutlet1

Rule Outlet2
IF NODE StorageforNode2 DEPTH >= 0.9
THEN OUTLET Outlet2 SETTING = CURVE ControlOutlet2

Rule Outlet3
IF NODE StorageforNode3 DEPTH >= 0.9
THEN OUTLET Outlet3 SETTING = CURVE ControlOutlet3

Rule Outlet4
IF NODE StorageforNode4 DEPTH >= 0.9
THEN OUTLET Outlet4 SETTING = CURVE ControlOutlet4

Rule Outlet5
IF NODE StorageforNode5 DEPTH >= 0.9
THEN OUTLET Outlet5 SETTING = CURVE ControlOutlet5

Rule Outlet6
IF NODE StorageforNode6 DEPTH >= 0.9
THEN OUTLET Outlet6 SETTING = CURVE ControlOutlet6

Rule Outlet7
IF NODE StorageforNode7 DEPTH >= 0.9
THEN OUTLET Outlet7 SETTING = CURVE ControlOutlet7

Rule Outlet8
IF NODE StorageforNode8 DEPTH >= 0.9
THEN OUTLET Outlet8 SETTING = CURVE ControlOutlet8

Rule Outlet9
IF NODE StorageforNode9 DEPTH >= 0.9
THEN OUTLET Outlet9 SETTING = CURVE ControlOutlet9

Rule Outlet10
IF NODE StorageforNode10 DEPTH >= 0.9
THEN OUTLET Outlet10 SETTING = CURVE ControlOutlet10

Rule Outlet11
IF NODE StorageforNode11 DEPTH >= 0.9
THEN OUTLET Outlet11 SETTING = CURVE ControlOutlet11

Rule Outlet12
IF NODE StorageforNode12 DEPTH >= 0.9
THEN OUTLET Outlet12 SETTING = CURVE ControlOutlet12

Rule Outlet13
IF NODE StorageforNode13 DEPTH >= 0.9
THEN OUTLET Outlet13 SETTING = CURVE ControlOutlet13

Rule Outlet14
IF NODE StorageforNode14 DEPTH >= 0.9
THEN OUTLET Outlet14 SETTING = CURVE ControlOutlet14

Rule Outlet15
IF NODE StorageforNode15 DEPTH >= 0.9
THEN OUTLET Outlet15 SETTING = CURVE ControlOutlet15

Rule Outlet16
IF NODE StorageforNode16 DEPTH >= 0.9
THEN OUTLET Outlet16 SETTING = CURVE ControlOutlet16

Rule Outlet17
IF NODE StorageforNode17 DEPTH >= 0.9
THEN OUTLET Outlet17 SETTING = CURVE ControlOutlet17

Rule Outlet18
IF NODE StorageforNode18 DEPTH >= 0.9
THEN OUTLET Outlet18 SETTING = CURVE ControlOutlet18

Rule Outlet19
IF NODE StorageforNode19 DEPTH >= 0.9
THEN OUTLET Outlet19 SETTING = CURVE ControlOutlet19

Rule Outlet20
IF NODE StorageforNode20 DEPTH >= 0.9
THEN OUTLET Outlet20 SETTING = CURVE ControlOutlet20

Rule Outlet21
IF NODE StorageforNode21 DEPTH >= 0.9
THEN OUTLET Outlet21 SETTING = CURVE ControlOutlet21

Rule Outlet22
IF NODE StorageforNode22 DEPTH >= 0.9
THEN OUTLET Outlet22 SETTING = CURVE ControlOutlet22

Rule Outlet23
IF NODE StorageforNode23 DEPTH >= 0.9
THEN OUTLET Outlet23 SETTING = CURVE ControlOutlet23

Rule Outlet24
IF NODE StorageforNode24 DEPTH >= 0.9
THEN OUTLET Outlet24 SETTING = CURVE ControlOutlet24

Rule Outlet25
IF NODE StorageforNode25 DEPTH >= 0.9
THEN OUTLET Outlet25 SETTING = CURVE ControlOutlet25

Rule STOPSUPPLY
IF SIMULATION CLOCKTIME > 12:00
THEN CONDUIT P-30 STATUS = CLOSED

Rule STARTSUPPLY
IF SIMULATION CLOCKTIME >= 0:00
AND SIMULATION CLOCKTIME < 12:00
THEN CONDUIT P-30 STATUS = OPEN

Rule Patterns
IF SIMULATION TIME > 0
THEN OUTLET DemandOutlet1 SETTING = TIMESERIES Pattern
AND OUTLET DemandOutlet2 SETTING = TIMESERIES Pattern
AND OUTLET DemandOutlet3 SETTING = TIMESERIES Pattern
AND OUTLET DemandOutlet4 SETTING = TIMESERIES Pattern
AND OUTLET DemandOutlet5 SETTING = TIMESERIES Pattern
AND OUTLET DemandOutlet6 SETTING = TIMESERIES Pattern
AND OUTLET DemandOutlet7 SETTING = TIMESERIES Pattern
AND OUTLET DemandOutlet8 SETTING = TIMESERIES Pattern
AND OUTLET DemandOutlet9 SETTING = TIMESERIES Pattern
AND OUTLET DemandOutlet10 SETTING = TIMESERIES Pattern
AND OUTLET DemandOutlet11 SETTING = TIMESERIES Pattern
AND OUTLET DemandOutlet12 SETTING = TIMESERIES Pattern
AND OUTLET DemandOutlet13 SETTING = TIMESERIES Pattern
AND OUTLET DemandOutlet14 SETTING = TIMESERIES Pattern
AND OUTLET DemandOutlet15 SETTING = TIMESERIES Pattern
AND OUTLET DemandOutlet16 SETTING = TIMESERIES Pattern
AND OUTLET DemandOutlet17 SETTING = TIMESERIES Pattern
AND OUTLET DemandOutlet18 SETTING = TIMESERIES Pattern
AND OUTLET DemandOutlet19 SETTING = TIMESERIES Pattern
AND OUTLET DemandOutlet20 SETTING = TIMESERIES Pattern
AND OUTLET DemandOutlet21 SETTING = TIMESERIES Pattern
AND OUTLET DemandOutlet22 SETTING = TIMESERIES Pattern
AND OUTLET DemandOutlet23 SETTING = TIMESERIES Pattern
AND OUTLET DemandOutlet24 SETTING = TIMESERIES Pattern
AND OUTLET DemandOutlet25 SETTING = TIMESERIES Pattern



[CURVES]
;;Name           Type       X-Value    Y-Value
;;-------------- ---------- ---------- ----------
ControlOutlet1   Control    0.9        0.985953
ControlOutlet1              0.902      0.984442
ControlOutlet1              0.904      0.982766
ControlOutlet1              0.906      0.980909
ControlOutlet1              0.908      0.97885
ControlOutlet1              0.91       0.976567
ControlOutlet1              0.912      0.974035
ControlOutlet1              0.914      0.971227
ControlOutlet1              0.916      0.968113
ControlOutlet1              0.918      0.964659
ControlOutlet1              0.92       0.960829
ControlOutlet1              0.922      0.956582
ControlOutlet1              0.924      0.951871
ControlOutlet1              0.926      0.946648
ControlOutlet1              0.928      0.940858
ControlOutlet1              0.93       0.934439
ControlOutlet1              0.932      0.927326
ControlOutlet1              0.934      0.919445
ControlOutlet1              0.936      0.910718
ControlOutlet1              0.938      0.901058
ControlOutlet1              0.94       0.890372
ControlOutlet1              0.942      0.878558
ControlOutlet1              0.944      0.865508
ControlOutlet1              0.946      0.851109
ControlOutlet1              0.948      0.835238
ControlOutlet1              0.95       0.817769
ControlOutlet1              0.952      0.798572
ControlOutlet1              0.954      0.777517
ControlOutlet1              0.956      0.754473
ControlOutlet1              0.958      0.729317
ControlOutlet1              0.96       0.701937
ControlOutlet1              0.962      0.672239
ControlOutlet1              0.964      0.640154
ControlOutlet1              0.966      0.605648