[TITLE]
Pescara -- Bragalli, D'Ambrosio, Lee, Lodi, Toth (2008)
Originally presented by:
Bragalli, C., D'Ambrosio, C., Lee, J., Lodi, A., & Toth, P. (2012, June). On the optimal design of water distribution networks: a practical MINLP approach. Optimization and Engineering, 13 (2), 219-246.
Converted to represent an intermittent water supply using EPANET's PDA method
Details of this specific conversion process are included in:
PLACEHOLDER

[JUNCTIONS]
;ID              	Elev        	Demand      	Pattern         
 1               	2.9         	10.00996237 	                	;
 2               	5           	12.42996197 	                	;
 3               	3.5         	8.499980827 	                	;
 4               	3.8         	8.499980827 	                	;
 5               	2.2         	12.11997685 	                	;
 6               	7           	1.629997162 	                	;
 7               	6.5         	0           	                	;
 8               	5.2         	33.59997887 	                	;
 9               	4.3         	4.379993974 	                	;
 10              	5.2         	16.40000783 	                	;
 11              	28          	29.76994985 	                	;
 12              	3.2         	0.489995229 	                	;
 13              	3.2         	7.490014804 	                	;
 14              	19.2        	6.060025906 	                	;
 18              	3.5         	5.030002463 	                	;
 19              	2.8         	4.81001367  	                	;
 20              	2.7         	21.04004517 	                	;
 21              	1.8         	16.94004791 	                	;
 22              	2.1         	10.41002096 	                	;
 23              	2           	2.169986222 	                	;
 24              	18.7        	6.549976424 	                	;
 25              	3.2         	10.41002096 	                	;
 26              	1.6         	5.55        	                	;
 27              	3.8         	5.320019513 	                	;
 28              	4.3         	3.63001901  	                	;
 29              	3.6         	32.9999288  	                	;
 30              	3.2         	6.000030281 	                	;
 31              	2.8         	6.399975128 	                	;
 33              	3.8         	3.090021247 	                	;
 34              	2.9         	3.090021247 	                	;
 35              	3.7         	8.790011473 	                	;
 36              	2.1         	1.679987103 	                	;
 37              	6.7         	12.64000769 	                	;
 38              	6.7         	12.64000769 	                	;
 39              	4.2         	12.64000769 	                	;
 40              	2.9         	5.560021746 	                	;
 41              	2.9         	2.600004364 	                	;
 42              	28.5        	4.570005405 	                	;
 44              	27.3        	7.559995204 	                	;
 45              	1.1         	6.209976652 	                	;
 46              	2.5         	3.090021247 	                	;
 47              	2.8         	0.590001116 	                	;
 48              	3.3         	12.63003862 	                	;
 49              	1.8         	6.37        	                	;
 50              	1.8         	13.21004025 	                	;
 51              	1.6         	3.869998218 	                	;
 52              	1.8         	6.430027851 	                	;
 53              	1.6         	2.549980899 	                	;
 54              	3.3         	0           	                	;
 55              	2.5         	11.30000314 	                	;
 56              	2.8         	3.990012608 	                	;
 57              	3.2         	7.750027125 	                	;
 58              	3.6         	1.910015612 	                	;
 59              	3.8         	0.880009977 	                	;
 60              	3.1         	5.140007092 	                	;
 61              	3           	5.140007092 	                	;
 62              	4.2         	7.439986342 	                	;
 76              	4.2         	0           	                	;
 83              	2.1         	0.099       	                	;
 84              	3.3         	0.540006689 	                	;
 85              	2.1         	0.370006669 	                	;
 86              	1.5         	6.460013886 	                	;
 87              	19.2        	24.99996846 	                	;
 88              	2.1         	2.150011111 	                	;
 89              	1.5         	1.750014065 	                	;

[RESERVOIRS]
;ID              	Head        	Pattern         
 15              	57.0000     	                	;
 43              	53.0800     	                	;
 65              	55.0000     	                	;

[TANKS]
;ID              	Elevation   	InitLevel   	MinLevel    	MaxLevel    	Diameter    	MinVol      	VolCurve        	Overflow

[PIPES]
;ID              	Node1           	Node2           	Length      	Diameter    	Roughness   	MinorLoss   	Status
 1               	1               	2               	977.3600    	100.0000    	130.0000    	0.0000      	Open  	;
 2               	3               	4               	443.1700    	150.0000    	130.0000    	0.0000      	Open  	;
 3               	3               	5               	1410.7700   	100.0000    	130.0000    	0.0000      	Open  	;
 4               	3               	1               	269.6100    	125.0000    	130.0000    	0.0000      	Open  	;
 5               	6               	7               	116.5200    	100.0000    	130.0000    	0.0000      	Open  	;
 6               	6               	8               	203.0600    	100.0000    	130.0000    	0.0000      	Open  	;
 7               	9               	6               	2309.1400   	100.0000    	130.0000    	0.0000      	Open  	;
 8               	10              	11              	1479.9800   	150.0000    	130.0000    	0.0000      	Open  	;
 11              	15              	14              	43.9700     	350.0000    	130.0000    	0.0000      	Open  	;
 12              	13              	26              	589.1600    	200.0000    	130.0000    	0.0000      	Open  	;
 13              	18              	13              	618.5300    	200.0000    	130.0000    	0.0000      	Open  	;
 14              	18              	19              	341.1000    	200.0000    	130.0000    	0.0000      	Open  	;
 15              	20              	18              	341.9200    	100.0000    	130.0000    	0.0000      	Open  	;
 16              	21              	20              	434.2400    	100.0000    	130.0000    	0.0000      	Open  	;
 17              	22              	23              	240.5900    	100.0000    	130.0000    	0.0000      	Open  	;
 18              	24              	25              	957.4400    	200.0000    	130.0000    	0.0000      	Open  	;
 19              	14              	24              	171.0400    	350.0000    	130.0000    	0.0000      	Open  	;
 20              	24              	26              	235.5700    	300.0000    	130.0000    	0.0000      	Open  	;
 22              	26              	27              	324.3600    	200.0000    	130.0000    	0.0000      	Open  	;
 24              	21              	22              	749.7400    	100.0000    	130.0000    	0.0000      	Open  	;
 25              	23              	21              	639.7000    	100.0000    	130.0000    	0.0000      	Open  	;
 26              	27              	23              	422.9500    	100.0000    	130.0000    	0.0000      	Open  	;
 27              	20              	27              	843.5200    	125.0000    	130.0000    	0.0000      	Open  	;
 28              	19              	20              	609.2300    	100.0000    	130.0000    	0.0000      	Open  	;
 29              	28              	29              	179.0400    	150.0000    	130.0000    	0.0000      	Open  	;
 30              	28              	30              	570.9000    	100.0000    	130.0000    	0.0000      	Open  	;
 31              	30              	28              	575.7300    	100.0000    	130.0000    	0.0000      	Open  	;
 32              	31              	49              	250.2800    	100.0000    	130.0000    	0.0000      	Open  	;
 33              	30              	33              	442.1100    	100.0000    	130.0000    	0.0000      	Open  	;
 34              	34              	30              	762.3500    	100.0000    	130.0000    	0.0000      	Open  	;
 35              	35              	36              	1124.9000   	100.0000    	130.0000    	0.0000      	Open  	;
 36              	31              	11              	1903.7500   	100.0000    	130.0000    	0.0000      	Open  	;
 37              	37              	31              	125.5100    	125.0000    	130.0000    	0.0000      	Open  	;
 38              	37              	38              	121.2700    	200.0000    	130.0000    	0.0000      	Open  	;
 39              	19              	38              	55.3200     	200.0000    	130.0000    	0.0000      	Open  	;
 41              	40              	39              	424.8600    	100.0000    	130.0000    	0.0000      	Open  	;
 42              	40              	41              	72.8000     	100.0000    	130.0000    	0.0000      	Open  	;
 43              	9               	40              	554.0800    	100.0000    	130.0000    	0.0000      	Open  	;
 44              	33              	9               	305.5300    	100.0000    	130.0000    	0.0000      	Open  	;
 45              	41              	33              	568.3500    	100.0000    	130.0000    	0.0000      	Open  	;
 46              	34              	41              	63.8100     	100.0000    	130.0000    	0.0000      	Open  	;
 47              	39              	34              	310.7600    	100.0000    	130.0000    	0.0000      	Open  	;
 48              	12              	39              	1217.1700   	200.0000    	130.0000    	0.0000      	Open  	;
 49              	25              	12              	365.8200    	150.0000    	130.0000    	0.0000      	Open  	;
 50              	35              	25              	1408.3300   	100.0000    	130.0000    	0.0000      	Open  	;
 51              	29              	35              	33.2500     	100.0000    	130.0000    	0.0000      	Open  	;
 52              	8               	29              	720.9000    	200.0000    	130.0000    	0.0000      	Open  	;
 53              	42              	11              	441.6900    	250.0000    	130.0000    	0.0000      	Open  	;
 54              	43              	42              	332.9900    	400.0000    	130.0000    	0.0000      	Open  	;
 55              	44              	42              	229.8500    	350.0000    	130.0000    	0.0000      	Open  	;
 56              	45              	46              	500.9200    	100.0000    	130.0000    	0.0000      	Open  	;
 57              	47              	48              	232.0700    	250.0000    	130.0000    	0.0000      	Open  	;
 59              	46              	49              	66.2400     	100.0000    	130.0000    	0.0000      	Open  	;
 60              	50              	46              	232.1300    	100.0000    	130.0000    	0.0000      	Open  	;
 61              	49              	50              	154.7800    	100.0000    	130.0000    	0.0000      	Open  	;
 62              	48              	49              	645.1000    	100.0000    	130.0000    	0.0000      	Open  	;
 63              	51              	48              	157.8700    	200.0000    	130.0000    	0.0000      	Open  	;
 64              	50              	51              	645.7900    	100.0000    	130.0000    	0.0000      	Open  	;
 65              	52              	50              	206.6900    	100.0000    	130.0000    	0.0000      	Open  	;
 66              	51              	53              	156.7500    	150.0000    	130.0000    	0.0000      	Open  	;
 68              	54              	55              	152.8100    	100.0000    	130.0000    	0.0000      	Open  	;
 70              	56              	47              	52.3700     	250.0000    	130.0000    	0.0000      	Open  	;
 71              	44              	57              	394.6700    	300.0000    	130.0000    	0.0000      	Open  	;
 72              	56              	44              	774.6900    	100.0000    	130.0000    	0.0000      	Open  	;
 73              	57              	56              	435.5800    	200.0000    	130.0000    	0.0000      	Open  	;
 74              	58              	57              	899.6700    	250.0000    	130.0000    	0.0000      	Open  	;
 75              	59              	60              	198.5000    	125.0000    	130.0000    	0.0000      	Open  	;
 76              	55              	61              	1116.1500   	100.0000    	130.0000    	0.0000      	Open  	;
 78              	52              	53              	631.8000    	100.0000    	130.0000    	0.0000      	Open  	;
 79              	45              	52              	350.9700    	100.0000    	130.0000    	0.0000      	Open  	;
 81              	61              	5               	226.0300    	125.0000    	130.0000    	0.0000      	Open  	;
 82              	60              	61              	186.7700    	100.0000    	130.0000    	0.0000      	Open  	;
 83              	58              	60              	337.2400    	100.0000    	130.0000    	0.0000      	Open  	;
 84              	62              	58              	173.0900    	250.0000    	130.0000    	0.0000      	Open  	;
 85              	62              	2               	784.4500    	100.0000    	130.0000    	0.0000      	Open  	;
 86              	59              	62              	86.3900     	200.0000    	130.0000    	0.0000      	Open  	;
 87              	4               	59              	732.9300    	200.0000    	130.0000    	0.0000      	Open  	;
 88              	2               	4               	193.7800    	100.0000    	130.0000    	0.0000      	Open  	;
 89              	65              	6               	1744.2700   	100.0000    	130.0000    	0.0000      	Open  	;
 90              	65              	76              	154.1800    	250.0000    	130.0000    	0.0000      	Open  	;
 92              	86              	45              	1635.6900   	100.0000    	130.0000    	0.0000      	Open  	;
 93              	76              	8               	1072.6900   	250.0000    	130.0000    	0.0000      	Open  	;
 95              	83              	85              	240.0500    	100.0000    	130.0000    	0.0000      	Open  	;
 96              	22              	85              	841.6300    	100.0000    	130.0000    	0.0000      	Open  	;
 97              	26              	83              	601.5800    	100.0000    	130.0000    	0.0000      	Open  	;
 98              	5               	86              	1600.0000   	100.0000    	130.0000    	0.0000      	Open  	;
 100             	54              	84              	180.0000    	100.0000    	130.0000    	0.0000      	Open  	;
 102             	83              	85              	240.0000    	100.0000    	130.0000    	0.0000      	Open  	;
 103             	43              	87              	10.0000     	150.0000    	130.0000    	0.0000      	Open  	;
 104             	55              	89              	179.5400    	100.0000    	130.0000    	0.0000      	Open  	;
 105             	89              	53              	331.4000    	100.0000    	130.0000    	0.0000      	Open  	;
 106             	55              	88              	332.3500    	100.0000    	130.0000    	0.0000      	Open  	;
 107             	88              	51              	325.0300    	100.0000    	130.0000    	0.0000      	Open  	;
 108             	84              	88              	113.3500    	100.0000    	130.0000    	0.0000      	Open  	;
 109             	88              	89              	150.8200    	100.0000    	130.0000    	0.0000      	Open  	;
 110             	55              	86              	165.4300    	100.0000    	130.0000    	0.0000      	Open  	;

[PUMPS]
;ID              	Node1           	Node2           	Parameters

[VALVES]
;ID              	Node1           	Node2           	Diameter    	Type	Setting     	MinorLoss   

[TAGS]

[DEMANDS]
;Junction        	Demand      	Pattern         	Category

[STATUS]
;ID              	Status/Setting

[PATTERNS]
;ID              	Multipliers

[CURVES]
;ID              	X-Value     	Y-Value

[CONTROLS]





[RULES]






[ENERGY]
 Global Efficiency  	75.0000
 Global Price       	0
 Demand Charge      	0.0000

[EMITTERS]
;Junction        	Coefficient

[QUALITY]
;Node            	InitQual

[SOURCES]
;Node            	Type        	Quality     	Pattern

[REACTIONS]
;Type     	Pipe/Tank       	Coefficient


[REACTIONS]
 Order Bulk            	1.00
 Order Tank            	1.00
 Order Wall            	1
 Global Bulk           	0.000000
 Global Wall           	0.000000
 Limiting Potential    	0
 Roughness Correlation 	0

[MIXING]
;Tank            	Model

[TIMES]
 Duration           	12:00 
 Hydraulic Timestep 	1:00 
 Quality Timestep   	0:01 
 Pattern Timestep   	2:00 
 Pattern Start      	0:00 
 Report Timestep    	0:01 
 Report Start       	0:00 
 Start ClockTime    	0:00:00
 Statistic          	NONE

[REPORT]
 Status             	No
 Summary            	No
 Page               	0

[OPTIONS]
 Units              	LPS
 Headloss           	H-W
 Specific Gravity   	1.000000
 Viscosity          	1.000000
 Trials             	40
 Accuracy           	0.00100000
 CHECKFREQ          	2
 MAXCHECK           	10
 DAMPLIMIT          	0.00000000
 Unbalanced         	Continue 10
 Pattern            	1
 Demand Multiplier  	1.0000
 Demand Model       	PDA
 Minimum Pressure   	0
 Required Pressure  	10
 Pressure Exponent  	0.5
 Emitter Exponent   	0.5000
 Quality            	Chlorine mg/L
 Diffusivity        	1.000000
 Tolerance          	0.01000000

[COORDINATES]
;Node            	X-Coord           	Y-Coord
1               	0.000             	2803.810          
2               	706.180           	2577.060          
3               	269.310           	2790.750          
4               	711.750           	2769.810          
5               	1350.560          	3096.500          
6               	4763.870          	165.940           
7               	4669.310          	114.750           
8               	4964.750          	195.690           
9               	3679.310          	1350.250          
10              	3364.810          	1460.190          
11              	2537.870          	1614.750          
12              	5106.810          	1722.810          
13              	5041.000          	2225.250          
14              	5899.930          	2425.310          
18              	4424.000          	2268.370          
19              	4090.560          	2299.620          
20              	4429.120          	2610.000          
21              	4638.180          	2982.250          
22              	5274.060          	3218.690          
23              	5277.870          	2981.440          
24              	5743.120          	2464.750          
25              	5448.930          	1594.250          
26              	5552.180          	2514.750          
27              	5270.810          	2558.560          
28              	4558.620          	859.810           
29              	4736.750          	876.370           
30              	4295.810          	1219.690          
31              	3807.250          	2384.190          
33              	3974.430          	1288.620          
34              	4013.750          	1848.370          
35              	4725.120          	907.560           
36              	4274.750          	1853.120          
37              	3917.560          	2330.500          
38              	4035.430          	2304.060          
39              	4068.370          	2154.250          
40              	3878.430          	1866.750          
41              	3950.430          	1856.370          
42              	2463.430          	2042.750          
44              	2432.120          	2269.310          
45              	4121.680          	2940.060          
46              	3864.500          	2626.690          
47              	2921.180          	2686.750          
48              	3150.000          	2662.500          
49              	3794.180          	2629.310          
50              	3793.000          	2784.000          
51              	3151.310          	2818.440          
52              	3788.500          	2990.620          
53              	3157.060          	2975.060          
54              	2647.250          	2841.500          
55              	2646.310          	2989.190          
56              	2874.560          	2662.870          
57              	2514.370          	2603.750          
58              	1615.560          	2642.000          
59              	1444.060          	2741.440          
60              	1531.870          	2857.620          
61              	1536.870          	3044.310          
62              	1442.930          	2655.060          
76              	5940.250          	133.870           
83              	5875.750          	3072.810          
84              	2825.810          	2720.000          
85              	5965.180          	3295.500          
86              	2825.810          	3149.620          
87              	2145.810          	1962.310          
88              	2825.810          	2833.370          
89              	2825.810          	2984.190          
15              	5909.680          	2382.370          
43              	2155.810          	1962.310          
65              	5985.310          	0.000             

[VERTICES]
;Link            	X-Coord           	Y-Coord

[LABELS]
;X-Coord             Y-Coord             Label & Anchor Node

[BACKDROP]
  DIMENSIONS  	-299.266          	-164.775          	6284.576          	3460.275          
 UNITS          	None
 FILE           	
 OFFSET         	0.00            	0.00            

[END]
