[TITLE]
;;Project Title/Notes

[OPTIONS]
;;Option             Value
FLOW_UNITS           LPS
INFILTRATION         HORTON
FLOW_ROUTING         DYNWAVE
LINK_OFFSETS         DEPTH
MIN_SLOPE            0
ALLOW_PONDING        NO
SKIP_STEADY_STATE    NO

START_DATE           05/18/2022
START_TIME           00:00:00
REPORT_START_DATE    05/18/2022
REPORT_START_TIME    00:00:00
END_DATE             05/18/2022
END_TIME             23:59:00
SWEEP_START          01/01
SWEEP_END            12/31
DRY_DAYS             0
REPORT_STEP          00:00:01
WET_STEP             00:01:00
DRY_STEP             00:01:00
ROUTING_STEP         0:00:01 
RULE_STEP            00:00:00

INERTIAL_DAMPING     PARTIAL
NORMAL_FLOW_LIMITED  BOTH
FORCE_MAIN_EQUATION  H-W
VARIABLE_STEP        0.75
LENGTHENING_STEP     0
MIN_SURFAREA         0.000001
MAX_TRIALS           20
HEAD_TOLERANCE       0.000005
SYS_FLOW_TOL         5
LAT_FLOW_TOL         5
MINIMUM_STEP         0.1
THREADS              1

[EVAPORATION]
;;Data Source    Parameters
;;-------------- ----------------
CONSTANT         0.0
DRY_ONLY         NO

[JUNCTIONS]
;;Name           Elevation  MaxDepth   InitDepth  SurDepth   Aponded   
;;-------------- ---------- ---------- ---------- ---------- ----------
DN1              90.000000  0          0          100        0         
DN2              88.000000  0          0          100        0         
DN3              90.000000  0          0          100        0         
DN4              85.000000  0          0          100        0         
1-1-DN1          90.975000  0          0          100        0         
1-2-DN1          90.950000  0          0          100        0         
1-3-DN1          90.925000  0          0          100        0         
1-4-DN1          90.900000  0          0          100        0         
1-5-DN1          90.875000  0          0          100        0         
1-6-DN1          90.850000  0          0          100        0         
1-7-DN1          90.825000  0          0          100        0         
1-8-DN1          90.800000  0          0          100        0         
1-9-DN1          90.775000  0          0          100        0         
1-10-DN1         90.750000  0          0          100        0         
1-11-DN1         90.725000  0          0          100        0         
1-12-DN1         90.700000  0          0          100        0         
1-13-DN1         90.675000  0          0          100        0         
1-14-DN1         90.650000  0          0          100        0         
1-15-DN1         90.625000  0          0          100        0         
1-16-DN1         90.600000  0          0          100        0         
1-17-DN1         90.575000  0          0          100        0         
1-18-DN1         90.550000  0          0          100        0         
1-19-DN1         90.525000  0          0          100        0         
1-20-DN1         90.500000  0          0          100        0         
1-21-DN1         90.475000  0          0          100        0         
1-22-DN1         90.450000  0          0          100        0         
1-23-DN1         90.425000  0          0          100        0         
1-24-DN1         90.400000  0          0          100        0         
1-25-DN1         90.375000  0          0          100        0         
1-26-DN1         90.350000  0          0          100        0         
1-27-DN1         90.325000  0          0          100        0         
1-28-DN1         90.300000  0          0          100        0         
1-29-DN1         90.275000  0          0          100        0         
1-30-DN1         90.250000  0          0          100        0         
1-31-DN1         90.225000  0          0          100        0         
1-32-DN1         90.200000  0          0          100        0         
1-33-DN1         90.175000  0          0          100        0         
1-34-DN1         90.150000  0          0          100        0         
1-35-DN1         90.125000  0          0          100        0         
1-36-DN1         90.100000  0          0          100        0         
1-37-DN1         90.075000  0          0          100        0         
1-38-DN1         90.050000  0          0          100        0         
1-39-DN1         90.025000  0          0          100        0         
DN1-1-DN2        89.974375  0          0          100        0         
DN1-2-DN2        89.923750  0          0          100        0         
DN1-3-DN2        89.873125  0          0          100        0         
DN1-4-DN2        89.822500  0          0          100        0         
DN1-5-DN2        89.771875  0          0          100        0         
DN1-6-DN2        89.721250  0          0          100        0         
DN1-7-DN2        89.670625  0          0          100        0         
DN1-8-DN2        89.620000  0          0          100        0         
DN1-9-DN2        89.569375  0          0          100        0         
DN1-10-DN2       89.518750  0          0          100        0         
DN1-11-DN2       89.468125  0          0          100        0         
DN1-12-DN2       89.417500  0          0          100        0         
DN1-13-DN2       89.366875  0          0          100        0         
DN1-14-DN2       89.316250  0          0          100        0         
DN1-15-DN2       89.265625  0          0          100        0         
DN1-16-DN2       89.215000  0          0          100        0         
DN1-17-DN2       89.164375  0          0          100        0         
DN1-18-DN2       89.113750  0          0          100        0         
DN1-19-DN2       89.063125  0          0          100        0         
DN1-20-DN2       89.012500  0          0          100        0         
DN1-21-DN2       88.961875  0          0          100        0         
DN1-22-DN2       88.911250  0          0          100        0         
DN1-23-DN2       88.860625  0          0          100        0         
DN1-24-DN2       88.810000  0          0          100        0         
DN1-25-DN2       88.759375  0          0          100        0         
DN1-26-DN2       88.708750  0          0          100        0         
DN1-27-DN2       88.658125  0          0          100        0         
DN1-28-DN2       88.607500  0          0          100        0         
DN1-29-DN2       88.556875  0          0          100        0         
DN1-30-DN2       88.506250  0          0          100        0         
DN1-31-DN2       88.455625  0          0          100        0         
DN1-32-DN2       88.405000  0          0          100        0         
DN1-33-DN2       88.354375  0          0          100        0         
DN1-34-DN2       88.303750  0          0          100        0         
DN1-35-DN2       88.253125  0          0          100        0         
DN1-36-DN2       88.202500  0          0          100        0         
DN1-37-DN2       88.151875  0          0          100        0         
DN1-38-DN2       88.101250  0          0          100        0         
DN1-39-DN2       88.050625  0          0          100        0         
DN2-1-DN3        88.074375  0          0          100        0         
DN2-2-DN3        88.123750  0          0          100        0         
DN2-3-DN3        88.173125  0          0          100        0         
DN2-4-DN3        88.222500  0          0          100        0         
DN2-5-DN3        88.271875  0          0          100        0         
DN2-6-DN3        88.321250  0          0          100        0         
DN2-7-DN3        88.370625  0          0          100        0         
DN2-8-DN3        88.420000  0          0          100        0         
DN2-9-DN3        88.469375  0          0          100        0         
DN2-10-DN3       88.518750  0          0          100        0         
DN2-11-DN3       88.568125  0          0          100        0         
DN2-12-DN3       88.617500  0          0          100        0         
DN2-13-DN3       88.666875  0          0          100        0         
DN2-14-DN3       88.716250  0          0          100        0         
DN2-15-DN3       88.765625  0          0          100        0         
DN2-16-DN3       88.815000  0          0          100        0         
DN2-17-DN3       88.864375  0          0          100        0         
DN2-18-DN3       88.913750  0          0          100        0         
DN2-19-DN3       88.963125  0          0          100        0         
DN2-20-DN3       89.012500  0          0          100        0         
DN2-21-DN3       89.061875  0          0          100        0         
DN2-22-DN3       89.111250  0          0          100        0         
DN2-23-DN3       89.160625  0          0          100        0         
DN2-24-DN3       89.210000  0          0          100        0         
DN2-25-DN3       89.259375  0          0          100        0         
DN2-26-DN3       89.308750  0          0          100        0         
DN2-27-DN3       89.358125  0          0          100        0         
DN2-28-DN3       89.407500  0          0          100        0         
DN2-29-DN3       89.456875  0          0          100        0         
DN2-30-DN3       89.506250  0          0          100        0         
DN2-31-DN3       89.555625  0          0          100        0         
DN2-32-DN3       89.605000  0          0          100        0         
DN2-33-DN3       89.654375  0          0          100        0         
DN2-34-DN3       89.703750  0          0          100        0         
DN2-35-DN3       89.753125  0          0          100        0         
DN2-36-DN3       89.802500  0          0          100        0         
DN2-37-DN3       89.851875  0          0          100        0         
DN2-38-DN3       89.901250  0          0          100        0         
DN2-39-DN3       89.950625  0          0          100        0         
DN3-1-DN4        89.875000  0          0          100        0         
DN3-2-DN4        89.750000  0          0          100        0         
DN3-3-DN4        89.625000  0          0          100        0         
DN3-4-DN4        89.500000  0          0          100        0         
DN3-5-DN4        89.375000  0          0          100        0         
DN3-6-DN4        89.250000  0          0          100        0         
DN3-7-DN4        89.125000  0          0          100        0         
DN3-8-DN4        89.000000  0          0          100        0         
DN3-9-DN4        88.875000  0          0          100        0         
DN3-10-DN4       88.750000  0          0          100        0         
DN3-11-DN4       88.625000  0          0          100        0         
DN3-12-DN4       88.500000  0          0          100        0         
DN3-13-DN4       88.375000  0          0          100        0         
DN3-14-DN4       88.250000  0          0          100        0         
DN3-15-DN4       88.125000  0          0          100        0         
DN3-16-DN4       88.000000  0          0          100        0         
DN3-17-DN4       87.875000  0          0          100        0         
DN3-18-DN4       87.750000  0          0          100        0         
DN3-19-DN4       87.625000  0          0          100        0         
DN3-20-DN4       87.500000  0          0          100        0         
DN3-21-DN4       87.375000  0          0          100        0         
DN3-22-DN4       87.250000  0          0          100        0         
DN3-23-DN4       87.125000  0          0          100        0         
DN3-24-DN4       87.000000  0          0          100        0         
DN3-25-DN4       86.875000  0          0          100        0         
DN3-26-DN4       86.750000  0          0          100        0         
DN3-27-DN4       86.625000  0          0          100        0         
DN3-28-DN4       86.500000  0          0          100        0         
DN3-29-DN4       86.375000  0          0          100        0         
DN3-30-DN4       86.250000  0          0          100        0         
DN3-31-DN4       86.125000  0          0          100        0         
DN3-32-DN4       86.000000  0          0          100        0         
DN3-33-DN4       85.875000  0          0          100        0         
DN3-34-DN4       85.750000  0          0          100        0         
DN3-35-DN4       85.625000  0          0          100        0         
DN3-36-DN4       85.500000  0          0          100        0         
DN3-37-DN4       85.375000  0          0          100        0         
DN3-38-DN4       85.250000  0          0          100        0         
DN3-39-DN4       85.125000  0          0          100        0         

[OUTFALLS]
;;Name           Elevation  Type       Stage Data       Gated    Route To        
;;-------------- ---------- ---------- ---------------- -------- ----------------
OutfallDN1       90.0       FREE                        NO                       
OutfallDN2       88.0       FREE                        NO                       
OutfallDN3       90.0       FREE                        NO                       
OutfallDN4       85.0       FREE                        NO                       
L_OutfallDN1     90.0       FREE                        NO                       
L_OutfallDN2     88.0       FREE                        NO                       
L_OutfallDN3     90.0       FREE                        NO                       
L_OutfallDN4     85.0       FREE                        NO                       

[STORAGE]
;;Name           Elev.    MaxDepth   InitDepth  Shape      Curve Type/Params            SurDepth  Fevap    Psi      Ksat     IMD     
;;-------------- -------- ---------- ----------- ---------- ---------------------------- --------- --------          -------- --------
Reservoir-1      92.0     110.0      8.0        TABULAR    Source1                      0         0       
StorageforNodeDN1 90.0     1.0        0.0        FUNCTIONAL 0          0          2880.000014 0         0       
StorageforNodeDN2 88.0     1.0        0.0        FUNCTIONAL 0          0          2880.000014 0         0       
StorageforNodeDN3 90.0     1.0        0.0        FUNCTIONAL 0          0          4320.0   0         0       
StorageforNodeDN4 85.0     1.0        0.0        FUNCTIONAL 0          0          1439.999986 0         0       

[CONDUITS]
;;Name           From Node        To Node          Length     Roughness  InOffset   OutOffset  InitFlow   MaxFlow   
;;-------------- ---------------- ---------------- ---------- ---------- ---------- ---------- ---------- ----------
P1-1             Reservoir-1      1-1-DN1          25.0       0.011      0.000      0.0        0          0         
P1-2             1-1-DN1          1-2-DN1          25.0       0.011      0.000      0.0        0          0         
P1-3             1-2-DN1          1-3-DN1          25.0       0.011      0.000      0.0        0          0         
P1-4             1-3-DN1          1-4-DN1          25.0       0.011      0.000      0.0        0          0         
P1-5             1-4-DN1          1-5-DN1          25.0       0.011      0.000      0.0        0          0         
P1-6             1-5-DN1          1-6-DN1          25.0       0.011      0.000      0.0        0          0         
P1-7             1-6-DN1          1-7-DN1          25.0       0.011      0.000      0.0        0          0         
P1-8             1-7-DN1          1-8-DN1          25.0       0.011      0.000      0.0        0          0         
P1-9             1-8-DN1          1-9-DN1          25.0       0.011      0.000      0.0        0          0         
P1-10            1-9-DN1          1-10-DN1         25.0       0.011      0.000      0.0        0          0         
P1-11            1-10-DN1         1-11-DN1         25.0       0.011      0.000      0.0        0          0         
P1-12            1-11-DN1         1-12-DN1         25.0       0.011      0.000      0.0        0          0         
P1-13            1-12-DN1         1-13-DN1         25.0       0.011      0.000      0.0        0          0         
P1-14            1-13-DN1         1-14-DN1         25.0       0.011      0.000      0.0        0          0         
P1-15            1-14-DN1         1-15-DN1         25.0       0.011      0.000      0.0        0          0         
P1-16            1-15-DN1         1-16-DN1         25.0       0.011      0.000      0.0        0          0         
P1-17            1-16-DN1         1-17-DN1         25.0       0.011      0.000      0.0        0          0         
P1-18            1-17-DN1         1-18-DN1         25.0       0.011      0.000      0.0        0          0         
P1-19            1-18-DN1         1-19-DN1         25.0       0.011      0.000      0.0        0          0         
P1-20            1-19-DN1         1-20-DN1         25.0       0.011      0.000      0.0        0          0         
P1-21            1-20-DN1         1-21-DN1         25.0       0.011      0.000      0.0        0          0         
P1-22            1-21-DN1         1-22-DN1         25.0       0.011      0.000      0.0        0          0         
P1-23            1-22-DN1         1-23-DN1         25.0       0.011      0.000      0.0        0          0         
P1-24            1-23-DN1         1-24-DN1         25.0       0.011      0.000      0.0        0          0         
P1-25            1-24-DN1         1-25-DN1         25.0       0.011      0.000      0.0        0          0         
P1-26            1-25-DN1         1-26-DN1         25.0       0.011      0.000      0.0        0          0         
P1-27            1-26-DN1         1-27-DN1         25.0       0.011      0.000      0.0        0          0         
P1-28            1-27-DN1         1-28-DN1         25.0       0.011      0.000      0.0        0          0         
P1-29            1-28-DN1         1-29-DN1         25.0       0.011      0.000      0.0        0          0         
P1-30            1-29-DN1         1-30-DN1         25.0       0.011      0.000      0.0        0          0         
P1-31            1-30-DN1         1-31-DN1         25.0       0.011      0.000      0.0        0          0         
P1-32            1-31-DN1         1-32-DN1         25.0       0.011      0.000      0.0        0          0         
P1-33            1-32-DN1         1-33-DN1         25.0       0.011      0.000      0.0        0          0         
P1-34            1-33-DN1         1-34-DN1         25.0       0.011      0.000      0.0        0          0         
P1-35            1-34-DN1         1-35-DN1         25.0       0.011      0.000      0.0        0          0         
P1-36            1-35-DN1         1-36-DN1         25.0       0.011      0.000      0.0        0          0         
P1-37            1-36-DN1         1-37-DN1         25.0       0.011      0.000      0.0        0          0         
P1-38            1-37-DN1         1-38-DN1         25.0       0.011      0.000      0.0        0          0         
P1-39            1-38-DN1         1-39-DN1         25.0       0.011      0.000      0.0        0          0         
P1-40            1-39-DN1         DN1              25.0       0.011      0.000      0.0        0          0         
P2-1             DN1              DN1-1-DN2        25.0       0.011      0.025      0.0        0          0         
P2-2             DN1-1-DN2        DN1-2-DN2        25.0       0.011      0.000      0.0        0          0         
P2-3             DN1-2-DN2        DN1-3-DN2        25.0       0.011      0.000      0.0        0          0         
P2-4             DN1-3-DN2        DN1-4-DN2        25.0       0.011      0.000      0.0        0          0         
P2-5             DN1-4-DN2        DN1-5-DN2        25.0       0.011      0.000      0.0        0          0         
P2-6             DN1-5-DN2        DN1-6-DN2        25.0       0.011      0.000      0.0        0          0         
P2-7             DN1-6-DN2        DN1-7-DN2        25.0       0.011      0.000      0.0        0          0         
P2-8             DN1-7-DN2        DN1-8-DN2        25.0       0.011      0.000      0.0        0          0         
P2-9             DN1-8-DN2        DN1-9-DN2        25.0       0.011      0.000      0.0        0          0         
P2-10            DN1-9-DN2        DN1-10-DN2       25.0       0.011      0.000      0.0        0          0         
P2-11            DN1-10-DN2       DN1-11-DN2       25.0       0.011      0.000      0.0        0          0         
P2-12            DN1-11-DN2       DN1-12-DN2       25.0       0.011      0.000      0.0        0          0         
P2-13            DN1-12-DN2       DN1-13-DN2       25.0       0.011      0.000      0.0        0          0         
P2-14            DN1-13-DN2       DN1-14-DN2       25.0       0.011      0.000      0.0        0          0         
P2-15            DN1-14-DN2       DN1-15-DN2       25.0       0.011      0.000      0.0        0          0         
P2-16            DN1-15-DN2       DN1-16-DN2       25.0       0.011      0.000      0.0        0          0         
P2-17            DN1-16-DN2       DN1-17-DN2       25.0       0.011      0.000      0.0        0          0         
P2-18            DN1-17-DN2       DN1-18-DN2       25.0       0.011      0.000      0.0        0          0         
P2-19            DN1-18-DN2       DN1-19-DN2       25.0       0.011      0.000      0.0        0          0         
P2-20            DN1-19-DN2       DN1-20-DN2       25.0       0.011      0.000      0.0        0          0         
P2-21            DN1-20-DN2       DN1-21-DN2       25.0       0.011      0.000      0.0        0          0         
P2-22            DN1-21-DN2       DN1-22-DN2       25.0       0.011      0.000      0.0        0          0         
P2-23            DN1-22-DN2       DN1-23-DN2       25.0       0.011      0.000      0.0        0          0         
P2-24            DN1-23-DN2       DN1-24-DN2       25.0       0.011      0.000      0.0        0          0         
P2-25            DN1-24-DN2       DN1-25-DN2       25.0       0.011      0.000      0.0        0          0         
P2-26            DN1-25-DN2       DN1-26-DN2       25.0       0.011      0.000      0.0        0          0         
P2-27            DN1-26-DN2       DN1-27-DN2       25.0       0.011      0.000      0.0        0          0         
P2-28            DN1-27-DN2       DN1-28-DN2       25.0       0.011      0.000      0.0        0          0         
P2-29            DN1-28-DN2       DN1-29-DN2       25.0       0.011      0.000      0.0        0          0         
P2-30            DN1-29-DN2       DN1-30-DN2       25.0       0.011      0.000      0.0        0          0         
P2-31            DN1-30-DN2       DN1-31-DN2       25.0       0.011      0.000      0.0        0          0         
P2-32            DN1-31-DN2       DN1-32-DN2       25.0       0.011      0.000      0.0        0          0         
P2-33            DN1-32-DN2       DN1-33-DN2       25.0       0.011      0.000      0.0        0          0         
P2-34            DN1-33-DN2       DN1-34-DN2       25.0       0.011      0.000      0.0        0          0         
P2-35            DN1-34-DN2       DN1-35-DN2       25.0       0.011      0.000      0.0        0          0         
P2-36            DN1-35-DN2       DN1-36-DN2       25.0       0.011      0.000      0.0        0          0         
P2-37            DN1-36-DN2       DN1-37-DN2       25.0       0.011      0.000      0.0        0          0         
P2-38            DN1-37-DN2       DN1-38-DN2       25.0       0.011      0.000      0.0        0          0         
P2-39            DN1-38-DN2       DN1-39-DN2       25.0       0.011      0.000      0.0        0          0         
P2-40            DN1-39-DN2       DN2              25.0       0.011      0.000      0.0        0          0         
P3-1             DN2              DN2-1-DN3        25.0       0.011      0.025      0.0        0          0         
P3-2             DN2-1-DN3        DN2-2-DN3        25.0       0.011      0.000      0.0        0          0         
P3-3             DN2-2-DN3        DN2-3-DN3        25.0       0.011      0.000      0.0        0          0         
P3-4             DN2-3-DN3        DN2-4-DN3        25.0       0.011      0.000      0.0        0          0         
P3-5             DN2-4-DN3        DN2-5-DN3        25.0       0.011      0.000      0.0        0          0         
P3-6             DN2-5-DN3        DN2-6-DN3        25.0       0.011      0.000      0.0        0          0         
P3-7             DN2-6-DN3        DN2-7-DN3        25.0       0.011      0.000      0.0        0          0         
P3-8             DN2-7-DN3        DN2-8-DN3        25.0       0.011      0.000      0.0        0          0         
P3-9             DN2-8-DN3        DN2-9-DN3        25.0       0.011      0.000      0.0        0          0         
P3-10            DN2-9-DN3        DN2-10-DN3       25.0       0.011      0.000      0.0        0          0         
P3-11            DN2-10-DN3       DN2-11-DN3       25.0       0.011      0.000      0.0        0          0         
P3-12            DN2-11-DN3       DN2-12-DN3       25.0       0.011      0.000      0.0        0          0         
P3-13            DN2-12-DN3       DN2-13-DN3       25.0       0.011      0.000      0.0        0          0         
P3-14            DN2-13-DN3       DN2-14-DN3       25.0       0.011      0.000      0.0        0          0         
P3-15            DN2-14-DN3       DN2-15-DN3       25.0       0.011      0.000      0.0        0          0         
P3-16            DN2-15-DN3       DN2-16-DN3       25.0       0.011      0.000      0.0        0          0         
P3-17            DN2-16-DN3       DN2-17-DN3       25.0       0.011      0.000      0.0        0          0         
P3-18            DN2-17-DN3       DN2-18-DN3       25.0       0.011      0.000      0.0        0          0         
P3-19            DN2-18-DN3       DN2-19-DN3       25.0       0.011      0.000      0.0        0          0         
P3-20            DN2-19-DN3       DN2-20-DN3       25.0       0.011      0.000      0.0        0          0         
P3-21            DN2-20-DN3       DN2-21-DN3       25.0       0.011      0.000      0.0        0          0         
P3-22            DN2-21-DN3       DN2-22-DN3       25.0       0.011      0.000      0.0        0          0         
P3-23            DN2-22-DN3       DN2-23-DN3       25.0       0.011      0.000      0.0        0          0         
P3-24            DN2-23-DN3       DN2-24-DN3       25.0       0.011      0.000      0.0        0          0         
P3-25            DN2-24-DN3       DN2-25-DN3       25.0       0.011      0.000      0.0        0          0         
P3-26            DN2-25-DN3       DN2-26-DN3       25.0       0.011      0.000      0.0        0          0         
P3-27            DN2-26-DN3       DN2-27-DN3       25.0       0.011      0.000      0.0        0          0         
P3-28            DN2-27-DN3       DN2-28-DN3       25.0       0.011      0.000      0.0        0          0         
P3-29            DN2-28-DN3       DN2-29-DN3       25.0       0.011      0.000      0.0        0          0         
P3-30            DN2-29-DN3       DN2-30-DN3       25.0       0.011      0.000      0.0        0          0         
P3-31            DN2-30-DN3       DN2-31-DN3       25.0       0.011      0.000      0.0        0          0         
P3-32            DN2-31-DN3       DN2-32-DN3       25.0       0.011      0.000      0.0        0          0         
P3-33            DN2-32-DN3       DN2-33-DN3       25.0       0.011      0.000      0.0        0          0         
P3-34            DN2-33-DN3       DN2-34-DN3       25.0       0.011      0.000      0.0        0          0         
P3-35            DN2-34-DN3       DN2-35-DN3       25.0       0.011      0.000      0.0        0          0         
P3-36            DN2-35-DN3       DN2-36-DN3       25.0       0.011      0.000      0.0        0          0         
P3-37            DN2-36-DN3       DN2-37-DN3       25.0       0.011      0.000      0.0        0          0         
P3-38            DN2-37-DN3       DN2-38-DN3       25.0       0.011      0.000      0.0        0          0         
P3-39            DN2-38-DN3       DN2-39-DN3       25.0       0.011      0.000      0.0        0          0         
P3-40            DN2-39-DN3       DN3              25.0       0.011      0.000      0.0        0          0         
P4-1             DN3              DN3-1-DN4        25.0       0.011      0.000      0.0        0          0         
P4-2             DN3-1-DN4        DN3-2-DN4        25.0       0.011      0.000      0.0        0          0         
P4-3             DN3-2-DN4        DN3-3-DN4        25.0       0.011      0.000      0.0        0          0         
P4-4             DN3-3-DN4        DN3-4-DN4        25.0       0.011      0.000      0.0        0          0         
P4-5             DN3-4-DN4        DN3-5-DN4        25.0       0.011      0.000      0.0        0          0         
P4-6             DN3-5-DN4        DN3-6-DN4        25.0       0.011      0.000      0.0        0          0         
P4-7             DN3-6-DN4        DN3-7-DN4        25.0       0.011      0.000      0.0        0          0         
P4-8             DN3-7-DN4        DN3-8-DN4        25.0       0.011      0.000      0.0        0          0         
P4-9             DN3-8-DN4        DN3-9-DN4        25.0       0.011      0.000      0.0        0          0         
P4-10            DN3-9-DN4        DN3-10-DN4       25.0       0.011      0.000      0.0        0          0         