[TITLE]
;;Project Title/Notes

[OPTIONS]
;;Option             Value
FLOW_UNITS           LPS
INFILTRATION         HORTON
FLOW_ROUTING         DYNWAVE
LINK_OFFSETS         DEPTH
MIN_SLOPE            0
ALLOW_PONDING        NO
SKIP_STEADY_STATE    NO

START_DATE           05/18/2022
START_TIME           00:00:00
REPORT_START_DATE    05/18/2022
REPORT_START_TIME    00:00:00
END_DATE             05/18/2022
END_TIME             23:59:00
SWEEP_START          01/01
SWEEP_END            12/31
DRY_DAYS             0
REPORT_STEP          00:00:01
WET_STEP             00:01:00
DRY_STEP             00:01:00
ROUTING_STEP         0:00:01 
RULE_STEP            00:00:00

INERTIAL_DAMPING     PARTIAL
NORMAL_FLOW_LIMITED  BOTH
FORCE_MAIN_EQUATION  H-W
VARIABLE_STEP        0.75
LENGTHENING_STEP     0
MIN_SURFAREA         0.00000001
MAX_TRIALS           20
HEAD_TOLERANCE       0.000005
SYS_FLOW_TOL         5
LAT_FLOW_TOL         5
MINIMUM_STEP         0.1
THREADS              4

[EVAPORATION]
;;Data Source    Parameters
;;-------------- ----------------
CONSTANT         0.0
DRY_ONLY         NO

[JUNCTIONS]
;;Name           Elevation  MaxDepth   InitDepth  SurDepth   Aponded   
;;-------------- ---------- ---------- ---------- ---------- ----------
DN1              90.00000   0          0          100        0         
DN2              88.00000   0          0          100        0         
DN3              90.00000   0          0          100        0         
DN4              85.00000   0          0          100        0         
1-1-DN1          90.99000   0          0          100        0         
1-2-DN1          90.98000   0          0          100        0         
1-3-DN1          90.97000   0          0          100        0         
1-4-DN1          90.96000   0          0          100        0         
1-5-DN1          90.95000   0          0          100        0         
1-6-DN1          90.94000   0          0          100        0         
1-7-DN1          90.93000   0          0          100        0         
1-8-DN1          90.92000   0          0          100        0         
1-9-DN1          90.91000   0          0          100        0         
1-10-DN1         90.90000   0          0          100        0         
1-11-DN1         90.89000   0          0          100        0         
1-12-DN1         90.88000   0          0          100        0         
1-13-DN1         90.87000   0          0          100        0         
1-14-DN1         90.86000   0          0          100        0         
1-15-DN1         90.85000   0          0          100        0         
1-16-DN1         90.84000   0          0          100        0         
1-17-DN1         90.83000   0          0          100        0         
1-18-DN1         90.82000   0          0          100        0         
1-19-DN1         90.81000   0          0          100        0         
1-20-DN1         90.80000   0          0          100        0         
1-21-DN1         90.79000   0          0          100        0         
1-22-DN1         90.78000   0          0          100        0         
1-23-DN1         90.77000   0          0          100        0         
1-24-DN1         90.76000   0          0          100        0         
1-25-DN1         90.75000   0          0          100        0         
1-26-DN1         90.74000   0          0          100        0         
1-27-DN1         90.73000   0          0          100        0         
1-28-DN1         90.72000   0          0          100        0         
1-29-DN1         90.71000   0          0          100        0         
1-30-DN1         90.70000   0          0          100        0         
1-31-DN1         90.69000   0          0          100        0         
1-32-DN1         90.68000   0          0          100        0         
1-33-DN1         90.67000   0          0          100        0         
1-34-DN1         90.66000   0          0          100        0         
1-35-DN1         90.65000   0          0          100        0         
1-36-DN1         90.64000   0          0          100        0         
1-37-DN1         90.63000   0          0          100        0         
1-38-DN1         90.62000   0          0          100        0         
1-39-DN1         90.61000   0          0          100        0         
1-40-DN1         90.60000   0          0          100        0         
1-41-DN1         90.59000   0          0          100        0         
1-42-DN1         90.58000   0          0          100        0         
1-43-DN1         90.57000   0          0          100        0         
1-44-DN1         90.56000   0          0          100        0         
1-45-DN1         90.55000   0          0          100        0         
1-46-DN1         90.54000   0          0          100        0         
1-47-DN1         90.53000   0          0          100        0         
1-48-DN1         90.52000   0          0          100        0         
1-49-DN1         90.51000   0          0          100        0         
1-50-DN1         90.50000   0          0          100        0         
1-51-DN1         90.49000   0          0          100        0         
1-52-DN1         90.48000   0          0          100        0         
1-53-DN1         90.47000   0          0          100        0         
1-54-DN1         90.46000   0          0          100        0         
1-55-DN1         90.45000   0          0          100        0         
1-56-DN1         90.44000   0          0          100        0         
1-57-DN1         90.43000   0          0          100        0         
1-58-DN1         90.42000   0          0          100        0         
1-59-DN1         90.41000   0          0          100        0         
1-60-DN1         90.40000   0          0          100        0         
1-61-DN1         90.39000   0          0          100        0         
1-62-DN1         90.38000   0          0          100        0         
1-63-DN1         90.37000   0          0          100        0         
1-64-DN1         90.36000   0          0          100        0         
1-65-DN1         90.35000   0          0          100        0         
1-66-DN1         90.34000   0          0          100        0         
1-67-DN1         90.33000   0          0          100        0         
1-68-DN1         90.32000   0          0          100        0         
1-69-DN1         90.31000   0          0          100        0         
1-70-DN1         90.30000   0          0          100        0         
1-71-DN1         90.29000   0          0          100        0         
1-72-DN1         90.28000   0          0          100        0         
1-73-DN1         90.27000   0          0          100        0         
1-74-DN1         90.26000   0          0          100        0         
1-75-DN1         90.25000   0          0          100        0         
1-76-DN1         90.24000   0          0          100        0         
1-77-DN1         90.23000   0          0          100        0         
1-78-DN1         90.22000   0          0          100        0         
1-79-DN1         90.21000   0          0          100        0         
1-80-DN1         90.20000   0          0          100        0         
1-81-DN1         90.19000   0          0          100        0         
1-82-DN1         90.18000   0          0          100        0         
1-83-DN1         90.17000   0          0          100        0         
1-84-DN1         90.16000   0          0          100        0         
1-85-DN1         90.15000   0          0          100        0         
1-86-DN1         90.14000   0          0          100        0         
1-87-DN1         90.13000   0          0          100        0         
1-88-DN1         90.12000   0          0          100        0         
1-89-DN1         90.11000   0          0          100        0         
1-90-DN1         90.10000   0          0          100        0         
1-91-DN1         90.09000   0          0          100        0         
1-92-DN1         90.08000   0          0          100        0         
1-93-DN1         90.07000   0          0          100        0         
1-94-DN1         90.06000   0          0          100        0         
1-95-DN1         90.05000   0          0          100        0         
1-96-DN1         90.04000   0          0          100        0         
1-97-DN1         90.03000   0          0          100        0         
1-98-DN1         90.02000   0          0          100        0         
1-99-DN1         90.01000   0          0          100        0         
DN1-1-DN2        90.00475   0          0          100        0         
DN1-2-DN2        89.98450   0          0          100        0         
DN1-3-DN2        89.96425   0          0          100        0         
DN1-4-DN2        89.94400   0          0          100        0         
DN1-5-DN2        89.92375   0          0          100        0         
DN1-6-DN2        89.90350   0          0          100        0         
DN1-7-DN2        89.88325   0          0          100        0         
DN1-8-DN2        89.86300   0          0          100        0         
DN1-9-DN2        89.84275   0          0          100        0         
DN1-10-DN2       89.82250   0          0          100        0         
DN1-11-DN2       89.80225   0          0          100        0         
DN1-12-DN2       89.78200   0          0          100        0         
DN1-13-DN2       89.76175   0          0          100        0         
DN1-14-DN2       89.74150   0          0          100        0         
DN1-15-DN2       89.72125   0          0          100        0         
DN1-16-DN2       89.70100   0          0          100        0         
DN1-17-DN2       89.68075   0          0          100        0         
DN1-18-DN2       89.66050   0          0          100        0         
DN1-19-DN2       89.64025   0          0          100        0         
DN1-20-DN2       89.62000   0          0          100        0         
DN1-21-DN2       89.59975   0          0          100        0         
DN1-22-DN2       89.57950   0          0          100        0         
DN1-23-DN2       89.55925   0          0          100        0         
DN1-24-DN2       89.53900   0          0          100        0         
DN1-25-DN2       89.51875   0          0          100        0         
DN1-26-DN2       89.49850   0          0          100        0         
DN1-27-DN2       89.47825   0          0          100        0         
DN1-28-DN2       89.45800   0          0          100        0         
DN1-29-DN2       89.43775   0          0          100        0         
DN1-30-DN2       89.41750   0          0          100        0         
DN1-31-DN2       89.39725   0          0          100        0         
DN1-32-DN2       89.37700   0          0          100        0         
DN1-33-DN2       89.35675   0          0          100        0         
DN1-34-DN2       89.33650   0          0          100        0         
DN1-35-DN2       89.31625   0          0          100        0         
DN1-36-DN2       89.29600   0          0          100        0         
DN1-37-DN2       89.27575   0          0          100        0         
DN1-38-DN2       89.25550   0          0          100        0         
DN1-39-DN2       89.23525   0          0          100        0         
DN1-40-DN2       89.21500   0          0          100        0         
DN1-41-DN2       89.19475   0          0          100        0         
DN1-42-DN2       89.17450   0          0          100        0         
DN1-43-DN2       89.15425   0          0          100        0         
DN1-44-DN2       89.13400   0          0          100        0         
DN1-45-DN2       89.11375   0          0          100        0         
DN1-46-DN2       89.09350   0          0          100        0         
DN1-47-DN2       89.07325   0          0          100        0         
DN1-48-DN2       89.05300   0          0          100        0         
DN1-49-DN2       89.03275   0          0          100        0         
DN1-50-DN2       89.01250   0          0          100        0         
DN1-51-DN2       88.99225   0          0          100        0         
DN1-52-DN2       88.97200   0          0          100        0         
DN1-53-DN2       88.95175   0          0          100        0         
DN1-54-DN2       88.93150   0          0          100        0         
DN1-55-DN2       88.91125   0          0          100        0         
DN1-56-DN2       88.89100   0          0          100        0         
DN1-57-DN2       88.87075   0          0          100        0         
DN1-58-DN2       88.85050   0          0          100        0         
DN1-59-DN2       88.83025   0          0          100        0         
DN1-60-DN2       88.81000   0          0          100        0         
DN1-61-DN2       88.78975   0          0          100        0         
DN1-62-DN2       88.76950   0          0          100        0         
DN1-63-DN2       88.74925   0          0          100        0         
DN1-64-DN2       88.72900   0          0          100        0         
DN1-65-DN2       88.70875   0          0          100        0         
DN1-66-DN2       88.68850   0          0          100        0         
DN1-67-DN2       88.66825   0          0          100        0         
DN1-68-DN2       88.64800   0          0          100        0         
DN1-69-DN2       88.62775   0          0          100        0         
DN1-70-DN2       88.60750   0          0          100        0         
DN1-71-DN2       88.58725   0          0          100        0         
DN1-72-DN2       88.56700   0          0          100        0         
DN1-73-DN2       88.54675   0          0          100        0         
DN1-74-DN2       88.52650   0          0          100        0         
DN1-75-DN2       88.50625   0          0          100        0         
DN1-76-DN2       88.48600   0          0          100        0         
DN1-77-DN2       88.46575   0          0          100        0         
DN1-78-DN2       88.44550   0          0          100        0         
DN1-79-DN2       88.42525   0          0          100        0         
DN1-80-DN2       88.40500   0          0          100        0         
DN1-81-DN2       88.38475   0          0          100        0         
DN1-82-DN2       88.36450   0          0          100        0         
DN1-83-DN2       88.34425   0          0          100        0         
DN1-84-DN2       88.32400   0          0          100        0         
DN1-85-DN2       88.30375   0          0          100        0         
DN1-86-DN2       88.28350   0          0          100        0         
DN1-87-DN2       88.26325   0          0          100        0         
DN1-88-DN2       88.24300   0          0          100        0         
DN1-89-DN2       88.22275   0          0          100        0         
DN1-90-DN2       88.20250   0          0          100        0         
DN1-91-DN2       88.18225   0          0          100        0         
DN1-92-DN2       88.16200   0          0          100        0         
DN1-93-DN2       88.14175   0          0          100        0         
DN1-94-DN2       88.12150   0          0          100        0         
DN1-95-DN2       88.10125   0          0          100        0         
DN1-96-DN2       88.08100   0          0          100        0         
DN1-97-DN2       88.06075   0          0          100        0         
DN1-98-DN2       88.04050   0          0          100        0         
DN1-99-DN2       88.02025   0          0          100        0         
DN2-1-DN3        88.04475   0          0          100        0         
DN2-2-DN3        88.06450   0          0          100        0         
DN2-3-DN3        88.08425   0          0          100        0         
DN2-4-DN3        88.10400   0          0          100        0         
DN2-5-DN3        88.12375   0          0          100        0         
DN2-6-DN3        88.14350   0          0          100        0         
DN2-7-DN3        88.16325   0          0          100        0         
DN2-8-DN3        88.18300   0          0          100        0         
DN2-9-DN3        88.20275   0          0          100        0         
DN2-10-DN3       88.22250   0          0          100        0         
DN2-11-DN3       88.24225   0          0          100        0         
DN2-12-DN3       88.26200   0          0          100        0         
DN2-13-DN3       88.28175   0          0          100        0         
DN2-14-DN3       88.30150   0          0          100        0         
DN2-15-DN3       88.32125   0          0          100        0         
DN2-16-DN3       88.34100   0          0          100        0         
DN2-17-DN3       88.36075   0          0          100        0         
DN2-18-DN3       88.38050   0          0          100        0         
DN2-19-DN3       88.40025   0          0          100        0         
DN2-20-DN3       88.42000   0          0          100        0         
DN2-21-DN3       88.43975   0          0          100        0         
DN2-22-DN3       88.45950   0          0          100        0         
DN2-23-DN3       88.47925   0          0          100        0         
DN2-24-DN3       88.49900   0          0          100        0         
DN2-25-DN3       88.51875   0          0          100        0         
DN2-26-DN3       88.53850   0          0          100        0         
DN2-27-DN3       88.55825   0          0          100        0         
DN2-28-DN3       88.57800   0          0          100        0         
DN2-29-DN3       88.59775   0          0          100        0         
DN2-30-DN3       88.61750   0          0          100        0         
DN2-31-DN3       88.63725   0          0          100        0         
DN2-32-DN3       88.65700   0          0          100        0         
DN2-33-DN3       88.67675   0          0          100        0         
DN2-34-DN3       88.69650   0          0          100        0         
DN2-35-DN3       88.71625   0          0          100        0         
DN2-36-DN3       88.73600   0          0          100        0         
DN2-37-DN3       88.75575   0          0          100        0         
DN2-38-DN3       88.77550   0          0          100        0         
DN2-39-DN3       88.79525   0          0          100        0         
DN2-40-DN3       88.81500   0          0          100        0         
DN2-41-DN3       88.83475   0          0          100        0         
DN2-42-DN3       88.85450   0          0          100        0         
DN2-43-DN3       88.87425   0          0          100        0         
DN2-44-DN3       88.89400   0          0          100        0         
DN2-45-DN3       88.91375   0          0          100        0         
DN2-46-DN3       88.93350   0          0          100        0         
DN2-47-DN3       88.95325   0          0          100        0         
DN2-48-DN3       88.97300   0          0          100        0         
DN2-49-DN3       88.99275   0          0          100        0         
DN2-50-DN3       89.01250   0          0          100        0         
DN2-51-DN3       89.03225   0          0          100        0         
DN2-52-DN3       89.05200   0          0          100        0         
DN2-53-DN3       89.07175   0          0          100        0         
DN2-54-DN3       89.09150   0          0          100        0         
DN2-55-DN3       89.11125   0          0          100        0         
DN2-56-DN3       89.13100   0          0          100        0         
DN2-57-DN3       89.15075   0          0          100        0         
DN2-58-DN3       89.17050   0          0          100        0         
DN2-59-DN3       89.19025   0          0          100        0         
DN2-60-DN3       89.21000   0          0          100        0         
DN2-61-DN3       89.22975   0          0          100        0         
DN2-62-DN3       89.24950   0          0          100        0         
DN2-63-DN3       89.26925   0          0          100        0         
DN2-64-DN3       89.28900   0          0          100        0         
DN2-65-DN3       89.30875   0          0          100        0         
DN2-66-DN3       89.32850   0          0          100        0         
DN2-67-DN3       89.34825   0          0          100        0         
DN2-68-DN3       89.36800   0          0          100        0         
DN2-69-DN3       89.38775   0          0          100        0         
DN2-70-DN3       89.40750   0          0          100        0         
DN2-71-DN3       89.42725   0          0          100        0         
DN2-72-DN3       89.44700   0          0          100        0         
DN2-73-DN3       89.46675   0          0          100        0         
DN2-74-DN3       89.48650   0          0          100        0         
DN2-75-DN3       89.50625   0          0          100        0         
DN2-76-DN3       89.52600   0          0          100        0         
DN2-77-DN3       89.54575   0          0          100        0         
DN2-78-DN3       89.56550   0          0          100        0         
DN2-79-DN3       89.58525   0          0          100        0         
DN2-80-DN3       89.60500   0          0          100        0         
DN2-81-DN3       89.62475   0          0          100        0         
DN2-82-DN3       89.64450   0          0          100        0         
DN2-83-DN3       89.66425   0          0          100        0         
DN2-84-DN3       89.68400   0          0          100        0         
DN2-85-DN3       89.70375   0          0          100        0         
DN2-86-DN3       89.72350   0          0          100        0         
DN2-87-DN3       89.74325   0          0          100        0         
DN2-88-DN3       89.76300   0          0          100        0         
DN2-89-DN3       89.78275   0          0          100        0         
DN2-90-DN3       89.80250   0          0          100        0         
DN2-91-DN3       89.82225   0          0          100        0         
DN2-92-DN3       89.84200   0          0          100        0         
DN2-93-DN3       89.86175   0          0          100        0         
DN2-94-DN3       89.88150   0          0          100        0         
DN2-95-DN3       89.90125   0          0          100        0         
DN2-96-DN3       89.92100   0          0          100        0         
DN2-97-DN3       89.94075   0          0          100        0         
DN2-98-DN3       89.96050   0          0          100        0         
DN2-99-DN3       89.98025   0          0          100        0         
DN3-1-DN4        89.95000   0          0          100        0         
DN3-2-DN4        89.90000   0          0          100        0         
DN3-3-DN4        89.85000   0          0          100        0         
DN3-4-DN4        89.80000   0          0          100        0         
DN3-5-DN4        89.75000   0          0          100        0         
DN3-6-DN4        89.70000   0          0          100        0         
DN3-7-DN4        89.65000   0          0          100        0         
DN3-8-DN4        89.60000   0          0          100        0         
DN3-9-DN4        89.55000   0          0          100        0         
DN3-10-DN4       89.50000   0          0          100        0         
DN3-11-DN4       89.45000   0          0          100        0         
DN3-12-DN4       89.40000   0          0          100        0         
DN3-13-DN4       89.35000   0          0          100        0         
DN3-14-DN4       89.30000   0          0          100        0         
DN3-15-DN4       89.25000   0          0          100        0         
DN3-16-DN4       89.20000   0          0          100        0         
DN3-17-DN4       89.15000   0          0          100        0         
DN3-18-DN4       89.10000   0          0          100        0         
DN3-19-DN4       89.05000   0          0          100        0         
DN3-20-DN4       89.00000   0          0          100        0         
DN3-21-DN4       88.95000   0          0          100        0         
DN3-22-DN4       88.90000   0          0          100        0         
DN3-23-DN4       88.85000   0          0          100        0         
DN3-24-DN4       88.80000   0          0          100        0         
DN3-25-DN4       88.75000   0          0          100        0         
DN3-26-DN4       88.70000   0          0          100        0         
DN3-27-DN4       88.65000   0          0          100        0         
DN3-28-DN4       88.60000   0          0          100        0         
DN3-29-DN4       88.55000   0          0          100        0         
DN3-30-DN4       88.50000   0          0          100        0         
DN3-31-DN4       88.45000   0          0          100        0         
DN3-32-DN4       88.40000   0          0          100        0         
DN3-33-DN4       88.35000   0          0          100        0         
DN3-34-DN4       88.30000   0          0          100        0         
DN3-35-DN4       88.25000   0          0          100        0         
DN3-36-DN4       88.20000   0          0          100        0         
DN3-37-DN4       88.15000   0          0          100        0         
DN3-38-DN4       88.10000   0          0          100        0         
DN3-39-DN4       88.05000   0          0          100        0         
DN3-40-DN4       88.00000   0          0          100        0         
DN3-41-DN4       87.95000   0          0          100        0         
DN3-42-DN4       87.90000   0          0          100        0         
DN3-43-DN4       87.85000   0          0          100        0         
DN3-44-DN4       87.80000   0          0          100        0         
DN3-45-DN4       87.75000   0          0          100        0         
DN3-46-DN4       87.70000   0          0          100        0         
DN3-47-DN4       87.65000   0          0          100        0         
DN3-48-DN4       87.60000   0          0          100        0         
DN3-49-DN4       87.55000   0          0          100        0         
DN3-50-DN4       87.50000   0          0          100        0         
DN3-51-DN4       87.45000   0          0          100        0         
DN3-52-DN4       87.40000   0          0          100        0         
DN3-53-DN4       87.35000   0          0          100        0         
DN3-54-DN4       87.30000   0          0          100        0         
DN3-55-DN4       87.25000   0          0          100        0         
DN3-56-DN4       87.20000   0          0          100        0         
DN3-57-DN4       87.15000   0          0          100        0         
DN3-58-DN4       87.10000   0          0          100        0         
DN3-59-DN4       87.05000   0          0          100        0         
DN3-60-DN4       87.00000   0          0          100        0         
DN3-61-DN4       86.95000   0          0          100        0         
DN3-62-DN4       86.90000   0          0          100        0         
DN3-63-DN4       86.85000   0          0          100        0         
DN3-64-DN4       86.80000   0          0          100        0         
DN3-65-DN4       86.75000   0          0          100        0         
DN3-66-DN4       86.70000   0          0          100        0         
DN3-67-DN4       86.65000   0          0          100        0         
DN3-68-DN4       86.60000   0          0          100        0         
DN3-69-DN4       86.55000   0          0          100        0         
DN3-70-DN4       86.50000   0          0          100        0         
DN3-71-DN4       86.45000   0          0          100        0         
DN3-72-DN4       86.40000   0          0          100        0         
DN3-73-DN4       86.35000   0          0          100        0         
DN3-74-DN4       86.30000   0          0          100        0         
DN3-75-DN4       86.25000   0          0          100        0         
DN3-76-DN4       86.20000   0          0          100        0         
DN3-77-DN4       86.15000   0          0          100        0         
DN3-78-DN4       86.10000   0          0          100        0         
DN3-79-DN4       86.05000   0          0          100        0         
DN3-80-DN4       86.00000   0          0          100        0         
DN3-81-DN4       85.95000   0          0          100        0         
DN3-82-DN4       85.90000   0          0          100        0         
DN3-83-DN4       85.85000   0          0          100        0         
DN3-84-DN4       85.80000   0          0          100        0         
DN3-85-DN4       85.75000   0          0          100        0         
DN3-86-DN4       85.70000   0          0          100        0         
DN3-87-DN4       85.65000   0          0          100        0         
DN3-88-DN4       85.60000   0          0          100        0         
DN3-89-DN4       85.55000   0          0          100        0         
DN3-90-DN4       85.50000   0          0          100        0         
DN3-91-DN4       85.45000   0          0          100        0         
DN3-92-DN4       85.40000   0          0          100        0         
DN3-93-DN4       85.35000   0          0          100        0         
DN3-94-DN4       85.30000   0          0          100        0         
DN3-95-DN4       85.25000   0          0          100        0         
DN3-96-DN4       85.20000   0          0          100        0         
DN3-97-DN4       85.15000   0          0          100        0         
DN3-98-DN4       85.10000   0          0          100        0         