[TITLE]
;;Project Title/Notes

[OPTIONS]
;;Option             Value
FLOW_UNITS           LPS
INFILTRATION         HORTON
FLOW_ROUTING         DYNWAVE
LINK_OFFSETS         DEPTH
MIN_SLOPE            0
ALLOW_PONDING        NO
SKIP_STEADY_STATE    NO

START_DATE           05/18/2022
START_TIME           00:00:00
REPORT_START_DATE    05/18/2022
REPORT_START_TIME    00:00:00
END_DATE             05/18/2022
END_TIME             23:59:00
SWEEP_START          01/01
SWEEP_END            12/31
DRY_DAYS             0
REPORT_STEP          00:00:01
WET_STEP             00:01:00
DRY_STEP             00:01:00
ROUTING_STEP         0:00:01 
RULE_STEP            00:00:00

INERTIAL_DAMPING     PARTIAL
NORMAL_FLOW_LIMITED  BOTH
FORCE_MAIN_EQUATION  H-W
VARIABLE_STEP        0.75
LENGTHENING_STEP     0
MIN_SURFAREA         0.00000001
MAX_TRIALS           20
HEAD_TOLERANCE       0.000005
SYS_FLOW_TOL         5
LAT_FLOW_TOL         5
MINIMUM_STEP         0.1
THREADS              4

[EVAPORATION]
;;Data Source    Parameters
;;-------------- ----------------
CONSTANT         0.0
DRY_ONLY         NO

[JUNCTIONS]
;;Name           Elevation  MaxDepth   InitDepth  SurDepth   Aponded   
;;-------------- ---------- ---------- ---------- ---------- ----------
DN1              90.000000  0          0          100        0         
DN2              88.000000  0          0          100        0         
DN3              90.000000  0          0          100        0         
DN4              85.000000  0          0          100        0         
1-1-DN1          90.995984  0          0          100        0         
1-2-DN1          90.991968  0          0          100        0         
1-3-DN1          90.987952  0          0          100        0         
1-4-DN1          90.983936  0          0          100        0         
1-5-DN1          90.979920  0          0          100        0         
1-6-DN1          90.975904  0          0          100        0         
1-7-DN1          90.971888  0          0          100        0         
1-8-DN1          90.967871  0          0          100        0         
1-9-DN1          90.963855  0          0          100        0         
1-10-DN1         90.959839  0          0          100        0         
1-11-DN1         90.955823  0          0          100        0         
1-12-DN1         90.951807  0          0          100        0         
1-13-DN1         90.947791  0          0          100        0         
1-14-DN1         90.943775  0          0          100        0         
1-15-DN1         90.939759  0          0          100        0         
1-16-DN1         90.935743  0          0          100        0         
1-17-DN1         90.931727  0          0          100        0         
1-18-DN1         90.927711  0          0          100        0         
1-19-DN1         90.923695  0          0          100        0         
1-20-DN1         90.919679  0          0          100        0         
1-21-DN1         90.915663  0          0          100        0         
1-22-DN1         90.911647  0          0          100        0         
1-23-DN1         90.907631  0          0          100        0         
1-24-DN1         90.903614  0          0          100        0         
1-25-DN1         90.899598  0          0          100        0         
1-26-DN1         90.895582  0          0          100        0         
1-27-DN1         90.891566  0          0          100        0         
1-28-DN1         90.887550  0          0          100        0         
1-29-DN1         90.883534  0          0          100        0         
1-30-DN1         90.879518  0          0          100        0         
1-31-DN1         90.875502  0          0          100        0         
1-32-DN1         90.871486  0          0          100        0         
1-33-DN1         90.867470  0          0          100        0         
1-34-DN1         90.863454  0          0          100        0         
1-35-DN1         90.859438  0          0          100        0         
1-36-DN1         90.855422  0          0          100        0         
1-37-DN1         90.851406  0          0          100        0         
1-38-DN1         90.847390  0          0          100        0         
1-39-DN1         90.843373  0          0          100        0         
1-40-DN1         90.839357  0          0          100        0         
1-41-DN1         90.835341  0          0          100        0         
1-42-DN1         90.831325  0          0          100        0         
1-43-DN1         90.827309  0          0          100        0         
1-44-DN1         90.823293  0          0          100        0         
1-45-DN1         90.819277  0          0          100        0         
1-46-DN1         90.815261  0          0          100        0         
1-47-DN1         90.811245  0          0          100        0         
1-48-DN1         90.807229  0          0          100        0         
1-49-DN1         90.803213  0          0          100        0         
1-50-DN1         90.799197  0          0          100        0         
1-51-DN1         90.795181  0          0          100        0         
1-52-DN1         90.791165  0          0          100        0         
1-53-DN1         90.787149  0          0          100        0         
1-54-DN1         90.783133  0          0          100        0         
1-55-DN1         90.779116  0          0          100        0         
1-56-DN1         90.775100  0          0          100        0         
1-57-DN1         90.771084  0          0          100        0         
1-58-DN1         90.767068  0          0          100        0         
1-59-DN1         90.763052  0          0          100        0         
1-60-DN1         90.759036  0          0          100        0         
1-61-DN1         90.755020  0          0          100        0         
1-62-DN1         90.751004  0          0          100        0         
1-63-DN1         90.746988  0          0          100        0         
1-64-DN1         90.742972  0          0          100        0         
1-65-DN1         90.738956  0          0          100        0         
1-66-DN1         90.734940  0          0          100        0         
1-67-DN1         90.730924  0          0          100        0         
1-68-DN1         90.726908  0          0          100        0         
1-69-DN1         90.722892  0          0          100        0         
1-70-DN1         90.718876  0          0          100        0         
1-71-DN1         90.714859  0          0          100        0         
1-72-DN1         90.710843  0          0          100        0         
1-73-DN1         90.706827  0          0          100        0         
1-74-DN1         90.702811  0          0          100        0         
1-75-DN1         90.698795  0          0          100        0         
1-76-DN1         90.694779  0          0          100        0         
1-77-DN1         90.690763  0          0          100        0         
1-78-DN1         90.686747  0          0          100        0         
1-79-DN1         90.682731  0          0          100        0         
1-80-DN1         90.678715  0          0          100        0         
1-81-DN1         90.674699  0          0          100        0         
1-82-DN1         90.670683  0          0          100        0         
1-83-DN1         90.666667  0          0          100        0         
1-84-DN1         90.662651  0          0          100        0         
1-85-DN1         90.658635  0          0          100        0         
1-86-DN1         90.654618  0          0          100        0         
1-87-DN1         90.650602  0          0          100        0         
1-88-DN1         90.646586  0          0          100        0         
1-89-DN1         90.642570  0          0          100        0         
1-90-DN1         90.638554  0          0          100        0         
1-91-DN1         90.634538  0          0          100        0         
1-92-DN1         90.630522  0          0          100        0         
1-93-DN1         90.626506  0          0          100        0         
1-94-DN1         90.622490  0          0          100        0         
1-95-DN1         90.618474  0          0          100        0         
1-96-DN1         90.614458  0          0          100        0         
1-97-DN1         90.610442  0          0          100        0         
1-98-DN1         90.606426  0          0          100        0         
1-99-DN1         90.602410  0          0          100        0         
1-100-DN1        90.598394  0          0          100        0         
1-101-DN1        90.594378  0          0          100        0         
1-102-DN1        90.590361  0          0          100        0         
1-103-DN1        90.586345  0          0          100        0         
1-104-DN1        90.582329  0          0          100        0         
1-105-DN1        90.578313  0          0          100        0         
1-106-DN1        90.574297  0          0          100        0         
1-107-DN1        90.570281  0          0          100        0         
1-108-DN1        90.566265  0          0          100        0         
1-109-DN1        90.562249  0          0          100        0         
1-110-DN1        90.558233  0          0          100        0         
1-111-DN1        90.554217  0          0          100        0         
1-112-DN1        90.550201  0          0          100        0         
1-113-DN1        90.546185  0          0          100        0         
1-114-DN1        90.542169  0          0          100        0         
1-115-DN1        90.538153  0          0          100        0         
1-116-DN1        90.534137  0          0          100        0         
1-117-DN1        90.530120  0          0          100        0         
1-118-DN1        90.526104  0          0          100        0         
1-119-DN1        90.522088  0          0          100        0         
1-120-DN1        90.518072  0          0          100        0         
1-121-DN1        90.514056  0          0          100        0         
1-122-DN1        90.510040  0          0          100        0         
1-123-DN1        90.506024  0          0          100        0         
1-124-DN1        90.502008  0          0          100        0         
1-125-DN1        90.497992  0          0          100        0         
1-126-DN1        90.493976  0          0          100        0         
1-127-DN1        90.489960  0          0          100        0         
1-128-DN1        90.485944  0          0          100        0         
1-129-DN1        90.481928  0          0          100        0         
1-130-DN1        90.477912  0          0          100        0         
1-131-DN1        90.473896  0          0          100        0         
1-132-DN1        90.469880  0          0          100        0         
1-133-DN1        90.465863  0          0          100        0         
1-134-DN1        90.461847  0          0          100        0         
1-135-DN1        90.457831  0          0          100        0         
1-136-DN1        90.453815  0          0          100        0         
1-137-DN1        90.449799  0          0          100        0         
1-138-DN1        90.445783  0          0          100        0         
1-139-DN1        90.441767  0          0          100        0         
1-140-DN1        90.437751  0          0          100        0         
1-141-DN1        90.433735  0          0          100        0         
1-142-DN1        90.429719  0          0          100        0         
1-143-DN1        90.425703  0          0          100        0         
1-144-DN1        90.421687  0          0          100        0         
1-145-DN1        90.417671  0          0          100        0         
1-146-DN1        90.413655  0          0          100        0         
1-147-DN1        90.409639  0          0          100        0         
1-148-DN1        90.405622  0          0          100        0         
1-149-DN1        90.401606  0          0          100        0         
1-150-DN1        90.397590  0          0          100        0         
1-151-DN1        90.393574  0          0          100        0         
1-152-DN1        90.389558  0          0          100        0         
1-153-DN1        90.385542  0          0          100        0         
1-154-DN1        90.381526  0          0          100        0         
1-155-DN1        90.377510  0          0          100        0         
1-156-DN1        90.373494  0          0          100        0         
1-157-DN1        90.369478  0          0          100        0         
1-158-DN1        90.365462  0          0          100        0         
1-159-DN1        90.361446  0          0          100        0         
1-160-DN1        90.357430  0          0          100        0         
1-161-DN1        90.353414  0          0          100        0         
1-162-DN1        90.349398  0          0          100        0         
1-163-DN1        90.345382  0          0          100        0         
1-164-DN1        90.341365  0          0          100        0         
1-165-DN1        90.337349  0          0          100        0         
1-166-DN1        90.333333  0          0          100        0         
1-167-DN1        90.329317  0          0          100        0         
1-168-DN1        90.325301  0          0          100        0         
1-169-DN1        90.321285  0          0          100        0         
1-170-DN1        90.317269  0          0          100        0         
1-171-DN1        90.313253  0          0          100        0         
1-172-DN1        90.309237  0          0          100        0         
1-173-DN1        90.305221  0          0          100        0         
1-174-DN1        90.301205  0          0          100        0         
1-175-DN1        90.297189  0          0          100        0         
1-176-DN1        90.293173  0          0          100        0         
1-177-DN1        90.289157  0          0          100        0         
1-178-DN1        90.285141  0          0          100        0         
1-179-DN1        90.281124  0          0          100        0         
1-180-DN1        90.277108  0          0          100        0         
1-181-DN1        90.273092  0          0          100        0         
1-182-DN1        90.269076  0          0          100        0         
1-183-DN1        90.265060  0          0          100        0         
1-184-DN1        90.261044  0          0          100        0         
1-185-DN1        90.257028  0          0          100        0         
1-186-DN1        90.253012  0          0          100        0         
1-187-DN1        90.248996  0          0          100        0         
1-188-DN1        90.244980  0          0          100        0         
1-189-DN1        90.240964  0          0          100        0         
1-190-DN1        90.236948  0          0          100        0         
1-191-DN1        90.232932  0          0          100        0         
1-192-DN1        90.228916  0          0          100        0         
1-193-DN1        90.224900  0          0          100        0         
1-194-DN1        90.220884  0          0          100        0         
1-195-DN1        90.216867  0          0          100        0         
1-196-DN1        90.212851  0          0          100        0         
1-197-DN1        90.208835  0          0          100        0         
1-198-DN1        90.204819  0          0          100        0         
1-199-DN1        90.200803  0          0          100        0         
1-200-DN1        90.196787  0          0          100        0         
1-201-DN1        90.192771  0          0          100        0         
1-202-DN1        90.188755  0          0          100        0         
1-203-DN1        90.184739  0          0          100        0         
1-204-DN1        90.180723  0          0          100        0         
1-205-DN1        90.176707  0          0          100        0         
1-206-DN1        90.172691  0          0          100        0         
1-207-DN1        90.168675  0          0          100        0         
1-208-DN1        90.164659  0          0          100        0         
1-209-DN1        90.160643  0          0          100        0         
1-210-DN1        90.156627  0          0          100        0         
1-211-DN1        90.152610  0          0          100        0         
1-212-DN1        90.148594  0          0          100        0         
1-213-DN1        90.144578  0          0          100        0         
1-214-DN1        90.140562  0          0          100        0         
1-215-DN1        90.136546  0          0          100        0         
1-216-DN1        90.132530  0          0          100        0         
1-217-DN1        90.128514  0          0          100        0         
1-218-DN1        90.124498  0          0          100        0         
1-219-DN1        90.120482  0          0          100        0         
1-220-DN1        90.116466  0          0          100        0         
1-221-DN1        90.112450  0          0          100        0         
1-222-DN1        90.108434  0          0          100        0         
1-223-DN1        90.104418  0          0          100        0         
1-224-DN1        90.100402  0          0          100        0         
1-225-DN1        90.096386  0          0          100        0         
1-226-DN1        90.092369  0          0          100        0         
1-227-DN1        90.088353  0          0          100        0         
1-228-DN1        90.084337  0          0          100        0         
1-229-DN1        90.080321  0          0          100        0         
1-230-DN1        90.076305  0          0          100        0         
1-231-DN1        90.072289  0          0          100        0         
1-232-DN1        90.068273  0          0          100        0         
1-233-DN1        90.064257  0          0          100        0         
1-234-DN1        90.060241  0          0          100        0         
1-235-DN1        90.056225  0          0          100        0         
1-236-DN1        90.052209  0          0          100        0         
1-237-DN1        90.048193  0          0          100        0         
1-238-DN1        90.044177  0          0          100        0         
1-239-DN1        90.040161  0          0          100        0         
1-240-DN1        90.036145  0          0          100        0         
1-241-DN1        90.032129  0          0          100        0         
1-242-DN1        90.028112  0          0          100        0         
1-243-DN1        90.024096  0          0          100        0         
1-244-DN1        90.020080  0          0          100        0         
1-245-DN1        90.016064  0          0          100        0         
1-246-DN1        90.012048  0          0          100        0         
1-247-DN1        90.008032  0          0          100        0         
1-248-DN1        90.004016  0          0          100        0         
DN1-1-DN2        90.017895  0          0          100        0         
DN1-2-DN2        90.010789  0          0          100        0         
DN1-3-DN2        90.003684  0          0          100        0         
DN1-4-DN2        89.996579  0          0          100        0         
DN1-5-DN2        89.989474  0          0          100        0         
DN1-6-DN2        89.982368  0          0          100        0         
DN1-7-DN2        89.975263  0          0          100        0         
DN1-8-DN2        89.968158  0          0          100        0         
DN1-9-DN2        89.961053  0          0          100        0         
DN1-10-DN2       89.953947  0          0          100        0         
DN1-11-DN2       89.946842  0          0          100        0         
DN1-12-DN2       89.939737  0          0          100        0         
DN1-13-DN2       89.932632  0          0          100        0         
DN1-14-DN2       89.925526  0          0          100        0         
DN1-15-DN2       89.918421  0          0          100        0         
DN1-16-DN2       89.911316  0          0          100        0         
DN1-17-DN2       89.904211  0          0          100        0         
DN1-18-DN2       89.897105  0          0          100        0         
DN1-19-DN2       89.890000  0          0          100        0         
DN1-20-DN2       89.882895  0          0          100        0         
DN1-21-DN2       89.875789  0          0          100        0         
DN1-22-DN2       89.868684  0          0          100        0         
DN1-23-DN2       89.861579  0          0          100        0         
DN1-24-DN2       89.854474  0          0          100        0         
DN1-25-DN2       89.847368  0          0          100        0         
DN1-26-DN2       89.840263  0          0          100        0         
DN1-27-DN2       89.833158  0          0          100        0         
DN1-28-DN2       89.826053  0          0          100        0         
DN1-29-DN2       89.818947  0          0          100        0         
DN1-30-DN2       89.811842  0          0          100        0         
DN1-31-DN2       89.804737  0          0          100        0         
DN1-32-DN2       89.797632  0          0          100        0         
DN1-33-DN2       89.790526  0          0          100        0         
DN1-34-DN2       89.783421  0          0          100        0         
DN1-35-DN2       89.776316  0          0          100        0         
DN1-36-DN2       89.769211  0          0          100        0         
DN1-37-DN2       89.762105  0          0          100        0         
DN1-38-DN2       89.755000  0          0          100        0         
DN1-39-DN2       89.747895  0          0          100        0         
DN1-40-DN2       89.740789  0          0          100        0         
DN1-41-DN2       89.733684  0          0          100        0         
DN1-42-DN2       89.726579  0          0          100        0         
DN1-43-DN2       89.719474  0          0          100        0         
DN1-44-DN2       89.712368  0          0          100        0         
DN1-45-DN2       89.705263  0          0          100        0         
DN1-46-DN2       89.698158  0          0          100        0         
DN1-47-DN2       89.691053  0          0          100        0         
DN1-48-DN2       89.683947  0          0          100        0         
DN1-49-DN2       89.676842  0          0          100        0         
DN1-50-DN2       89.669737  0          0          100        0         
DN1-51-DN2       89.662632  0          0          100        0         
DN1-52-DN2       89.655526  0          0          100        0         
DN1-53-DN2       89.648421  0          0          100        0         
DN1-54-DN2       89.641316  0          0          100        0         
DN1-55-DN2       89.634211  0          0          100        0         
DN1-56-DN2       89.627105  0          0          100        0         
DN1-57-DN2       89.620000  0          0          100        0         
DN1-58-DN2       89.612895  0          0          100        0         
DN1-59-DN2       89.605789  0          0          100        0         
DN1-60-DN2       89.598684  0          0          100        0         
DN1-61-DN2       89.591579  0          0          100        0         
DN1-62-DN2       89.584474  0          0          100        0         
DN1-63-DN2       89.577368  0          0          100        0         
DN1-64-DN2       89.570263  0          0          100        0         
DN1-65-DN2       89.563158  0          0          100        0         
DN1-66-DN2       89.556053  0          0          100        0         
DN1-67-DN2       89.548947  0          0          100        0         
DN1-68-DN2       89.541842  0          0          100        0         
DN1-69-DN2       89.534737  0          0          100        0         
DN1-70-DN2       89.527632  0          0          100        0         
DN1-71-DN2       89.520526  0          0          100        0         
DN1-72-DN2       89.513421  0          0          100        0         
DN1-73-DN2       89.506316  0          0          100        0         
DN1-74-DN2       89.499211  0          0          100        0         
DN1-75-DN2       89.492105  0          0          100        0         
DN1-76-DN2       89.485000  0          0          100        0         
DN1-77-DN2       89.477895  0          0          100        0         
DN1-78-DN2       89.470789  0          0          100        0         
DN1-79-DN2       89.463684  0          0          100        0         
DN1-80-DN2       89.456579  0          0          100        0         
DN1-81-DN2       89.449474  0          0          100        0         
DN1-82-DN2       89.442368  0          0          100        0         
DN1-83-DN2       89.435263  0          0          100        0         
DN1-84-DN2       89.428158  0          0          100        0         
DN1-85-DN2       89.421053  0          0          100        0         
DN1-86-DN2       89.413947  0          0          100        0         
DN1-87-DN2       89.406842  0          0          100        0         
DN1-88-DN2       89.399737  0          0          100        0         
DN1-89-DN2       89.392632  0          0          100        0         
DN1-90-DN2       89.385526  0          0          100        0         
DN1-91-DN2       89.378421  0          0          100        0         
DN1-92-DN2       89.371316  0          0          100        0         
DN1-93-DN2       89.364211  0          0          100        0         
DN1-94-DN2       89.357105  0          0          100        0         
DN1-95-DN2       89.350000  0          0          100        0         
DN1-96-DN2       89.342895  0          0          100        0         
DN1-97-DN2       89.335789  0          0          100        0         
DN1-98-DN2       89.328684  0          0          100        0         
DN1-99-DN2       89.321579  0          0          100        0         
DN1-100-DN2      89.314474  0          0          100        0         
DN1-101-DN2      89.307368  0          0          100        0         
DN1-102-DN2      89.300263  0          0          100        0         
DN1-103-DN2      89.293158  0          0          100        0         
DN1-104-DN2      89.286053  0          0          100        0         
DN1-105-DN2      89.278947  0          0          100        0         
DN1-106-DN2      89.271842  0          0          100        0         
DN1-107-DN2      89.264737  0          0          100        0         
DN1-108-DN2      89.257632  0          0          100        0         
DN1-109-DN2      89.250526  0          0          100        0         
DN1-110-DN2      89.243421  0          0          100        0         
DN1-111-DN2      89.236316  0          0          100        0         
DN1-112-DN2      89.229211  0          0          100        0         
DN1-113-DN2      89.222105  0          0          100        0         
DN1-114-DN2      89.215000  0          0          100        0         
DN1-115-DN2      89.207895  0          0          100        0         
DN1-116-DN2      89.200789  0          0          100        0         
DN1-117-DN2      89.193684  0          0          100        0         
DN1-118-DN2      89.186579  0          0          100        0         
DN1-119-DN2      89.179474  0          0          100        0         
DN1-120-DN2      89.172368  0          0          100        0         
DN1-121-DN2      89.165263  0          0          100        0         
DN1-122-DN2      89.158158  0          0          100        0         
DN1-123-DN2      89.151053  0          0          100        0         
DN1-124-DN2      89.143947  0          0          100        0         
DN1-125-DN2      89.136842  0          0          100        0         
DN1-126-DN2      89.129737  0          0          100        0         
DN1-127-DN2      89.122632  0          0          100        0         
DN1-128-DN2      89.115526  0          0          100        0         
DN1-129-DN2      89.108421  0          0          100        0         
DN1-130-DN2      89.101316  0          0          100        0         
DN1-131-DN2      89.094211  0          0          100        0         
DN1-132-DN2      89.087105  0          0          100        0         
DN1-133-DN2      89.080000  0          0          100        0         
DN1-134-DN2      89.072895  0          0          100        0         
DN1-135-DN2      89.065789  0          0          100        0         
DN1-136-DN2      89.058684  0          0          100        0         
DN1-137-DN2      89.051579  0          0          100        0         
DN1-138-DN2      89.044474  0          0          100        0         
DN1-139-DN2      89.037368  0          0          100        0         
DN1-140-DN2      89.030263  0          0          100        0         
DN1-141-DN2      89.023158  0          0          100        0         
DN1-142-DN2      89.016053  0          0          100        0         
DN1-143-DN2      89.008947  0          0          100        0         
DN1-144-DN2      89.001842  0          0          100        0         
DN1-145-DN2      88.994737  0          0          100        0         
DN1-146-DN2      88.987632  0          0          100        0         
DN1-147-DN2      88.980526  0          0          100        0         