[TITLE]
Modena -- Bragalli, D'Ambrosio, Lee, Lodi, Toth (2008)
Originally presented by:
Bragalli, C., D'Ambrosio, C., Lee, J., Lodi, A., & Toth, P. (2012, June). On the optimal design of water distribution networks: a practical MINLP approach. Optimization and Engineering, 13 (2), 219-246.
Details of this specific conversion process are included in:
PLACEHOLDER

[JUNCTIONS]
;ID              	Elev        	Demand      	Pattern         
 1               	39.49       	0.090004    	                	;
 2               	39.62       	2.174997    	                	;
 3               	38.70       	7.694978    	                	;
 4               	37.25       	4.140029    	                	;
 5               	36.27       	1.439991    	                	;
 6               	35.95       	1.169984    	                	;
 7               	35.95       	1.545004    	                	;
 8               	36.09       	3.179979    	                	;
 9               	36.18       	1.740010    	                	;
 10              	37.00       	2.670001    	                	;
 11              	36.50       	0.659993    	                	;
 12              	37.39       	0.045002    	                	;
 13              	38.07       	0.854998    	                	;
 14              	37.02       	0.540005    	                	;
 15              	41.26       	4.950017    	                	;
 16              	39.35       	0.045002    	                	;
 17              	39.53       	3.150013    	                	;
 18              	36.59       	7.004986    	                	;
 19              	36.76       	0.000000    	                	;
 20              	37.72       	2.295020    	                	;
 21              	37.31       	6.914978    	                	;
 22              	37.62       	1.589993    	                	;
 23              	36.99       	1.980014    	                	;
 24              	35.20       	4.109978    	                	;
 25              	35.11       	0.885002    	                	;
 26              	34.65       	0.674996    	                	;
 27              	34.33       	0.960009    	                	;
 28              	36.15       	10.665006   	                	;
 29              	36.30       	1.395008    	                	;
 30              	36.10       	0.060001    	                	;
 31              	36.14       	0.029997    	                	;
 32              	35.80       	4.394970    	                	;
 33              	33.26       	3.509994    	                	;
 34              	33.34       	2.909977    	                	;
 35              	33.51       	1.784997    	                	;
 36              	32.70       	2.115017    	                	;
 37              	32.65       	4.469998    	                	;
 38              	32.56       	3.164978    	                	;
 39              	33.56       	11.609956   	                	;
 40              	31.59       	6.434987    	                	;
 41              	31.38       	11.670015   	                	;
 42              	32.67       	5.624983    	                	;
 43              	33.50       	3.554999    	                	;
 44              	33.57       	2.129982    	                	;
 45              	33.77       	0.480003    	                	;
 46              	34.14       	1.709992    	                	;
 47              	33.68       	1.845019    	                	;
 48              	33.71       	2.054977    	                	;
 49              	31.68       	1.769981    	                	;
 50              	33.34       	2.714982    	                	;
 51              	32.83       	1.455012    	                	;
 52              	32.78       	0.825001    	                	;
 53              	39.28       	4.155029    	                	;
 54              	37.12       	0.974985    	                	;
 55              	36.48       	2.070013    	                	;
 56              	36.42       	12.420036   	                	;
 57              	36.13       	1.830021    	                	;
 58              	36.05       	5.775036    	                	;
 59              	36.77       	3.930002    	                	;
 60              	35.48       	4.169988    	                	;
 61              	35.05       	2.340019    	                	;
 62              	35.10       	1.740010    	                	;
 63              	37.95       	1.830021    	                	;
 64              	38.44       	4.394970    	                	;
 65              	37.81       	1.694996    	                	;
 66              	38.22       	1.679979    	                	;
 67              	38.73       	0.720006    	                	;
 68              	38.95       	2.054977    	                	;
 69              	39.70       	3.390005    	                	;
 70              	40.59       	1.964985    	                	;
 71              	40.81       	1.589993    	                	;
 72              	41.06       	0.569996    	                	;
 73              	41.45       	2.640026    	                	;
 74              	41.83       	0.840008    	                	;
 75              	41.44       	0.000000    	                	;
 76              	41.09       	6.960040    	                	;
 77              	40.74       	1.545004    	                	;
 78              	38.60       	4.619970    	                	;
 79              	36.91       	2.400016    	                	;
 80              	36.75       	6.734994    	                	;
 81              	36.81       	1.875018    	                	;
 82              	37.05       	1.304993    	                	;
 83              	35.88       	1.080007    	                	;
 84              	36.45       	0.734993    	                	;
 85              	36.16       	5.880039    	                	;
 86              	34.99       	1.409989    	                	;
 87              	35.61       	4.995016    	                	;
 88              	34.89       	6.254959    	                	;
 89              	35.59       	2.160021    	                	;
 90              	35.70       	2.760010    	                	;
 91              	35.20       	3.000020    	                	;
 92              	35.64       	3.359971    	                	;
 93              	35.93       	0.299992    	                	;
 94              	37.64       	3.404981    	                	;
 95              	37.17       	2.160021    	                	;
 96              	37.10       	4.004998    	                	;
 97              	36.97       	0.900010    	                	;
 98              	37.00       	4.140029    	                	;
 99              	36.74       	0.075003    	                	;
 100             	34.78       	3.089983    	                	;
 101             	34.26       	4.784979    	                	;
 102             	33.66       	7.035001    	                	;
 103             	33.78       	2.550007    	                	;
 104             	33.75       	0.029997    	                	;
 105             	33.38       	0.150001    	                	;
 106             	34.85       	1.664987    	                	;
 107             	34.27       	1.530015    	                	;
 108             	34.30       	1.320015    	                	;
 109             	33.95       	3.494974    	                	;
 110             	33.92       	0.464997    	                	;
 111             	32.32       	0.674996    	                	;
 112             	34.76       	4.440022    	                	;
 113             	34.21       	12.180033   	                	;
 114             	34.92       	2.640026    	                	;
 115             	32.96       	8.940002    	                	;
 116             	30.69       	0.000000    	                	;
 117             	30.59       	9.510019    	                	;
 118             	30.73       	0.000000    	                	;
 119             	30.70       	0.000000    	                	;
 120             	31.02       	4.545027    	                	;
 121             	31.03       	2.775010    	                	;
 122             	31.75       	2.655019    	                	;
 123             	32.00       	2.219991    	                	;
 124             	32.05       	0.000000    	                	;
 125             	32.10       	1.980014    	                	;
 126             	33.76       	3.359971    	                	;
 127             	32.27       	1.890018    	                	;
 128             	31.86       	8.084961    	                	;
 129             	32.42       	1.500014    	                	;
 130             	33.00       	2.414980    	                	;
 131             	33.63       	7.064993    	                	;
 132             	36.37       	3.959981    	                	;
 133             	35.69       	3.164978    	                	;
 134             	35.52       	2.264998    	                	;
 135             	35.56       	1.259999    	                	;
 136             	35.92       	1.574994    	                	;
 137             	35.37       	1.740010    	                	;
 138             	35.06       	3.674998    	                	;
 139             	34.12       	2.489976    	                	;
 140             	39.35       	0.000000    	                	;
 141             	39.10       	0.000000    	                	;
 142             	39.84       	0.000000    	                	;
 143             	39.84       	1.200004    	                	;
 144             	39.45       	0.494992    	                	;
 145             	39.70       	0.509999    	                	;
 146             	37.95       	1.530015    	                	;
 147             	37.61       	1.845019    	                	;
 148             	37.95       	0.134995    	                	;
 149             	35.69       	0.645000    	                	;
 150             	35.32       	2.340019    	                	;
 151             	35.81       	1.200004    	                	;
 152             	35.81       	2.070013    	                	;
 153             	36.02       	0.795009    	                	;
 154             	38.25       	0.885002    	                	;
 155             	37.50       	3.494974    	                	;
 156             	37.54       	0.045002    	                	;
 157             	37.08       	0.464997    	                	;
 158             	36.76       	12.734998   	                	;
 159             	35.88       	0.480003    	                	;
 160             	35.77       	0.315009    	                	;
 161             	34.70       	0.029997    	                	;
 162             	35.37       	1.845019    	                	;
 163             	34.99       	1.485004    	                	;
 164             	35.93       	0.825001    	                	;
 165             	36.27       	1.169984    	                	;
 166             	32.67       	0.404998    	                	;
 167             	32.75       	0.404998    	                	;
 168             	32.88       	0.104999    	                	;
 169             	34.09       	14.205053   	                	;
 170             	36.09       	3.959981    	                	;
 171             	36.05       	1.530015    	                	;
 172             	36.04       	1.320015    	                	;
 173             	36.02       	0.734993    	                	;
 174             	31.76       	0.000000    	                	;
 175             	31.91       	1.679979    	                	;
 176             	31.80       	0.000000    	                	;
 177             	31.48       	0.000000    	                	;
 178             	31.12       	0.014998    	                	;
 179             	31.10       	0.000000    	                	;
 180             	31.19       	0.000000    	                	;
 181             	30.39       	0.000000    	                	;
 182             	30.55       	0.014998    	                	;
 183             	31.13       	2.760010    	                	;
 184             	31.81       	0.060001    	                	;
 185             	32.34       	2.519981    	                	;
 186             	32.83       	3.554999    	                	;
 187             	33.69       	0.134995    	                	;
 188             	33.17       	1.845019    	                	;
 189             	33.23       	5.849965    	                	;
 190             	33.34       	1.754986    	                	;
 191             	33.77       	2.550007    	                	;
 192             	33.77       	3.225017    	                	;
 193             	32.20       	5.999976    	                	;
 194             	34.41       	6.689984    	                	;
 195             	33.39       	0.075003    	                	;
 196             	34.34       	0.014998    	                	;
 197             	35.03       	6.180017    	                	;
 198             	34.44       	0.585005    	                	;
 199             	34.53       	0.225002    	                	;
 200             	34.94       	2.730023    	                	;
 201             	34.70       	5.145011    	                	;
 202             	36.70       	0.929990    	                	;
 203             	36.20       	6.254959    	                	;
 204             	35.03       	3.390005    	                	;
 205             	36.77       	1.515018    	                	;
 206             	36.20       	0.810010    	                	;
 207             	37.88       	1.154992    	                	;
 208             	38.03       	0.494992    	                	;
 209             	36.86       	1.725012    	                	;
 210             	37.24       	2.295020    	                	;
 211             	36.66       	0.000000    	                	;
 212             	36.49       	0.450008    	                	;
 213             	37.30       	0.480003    	                	;
 214             	40.30       	0.840008    	                	;
 215             	39.85       	0.000000    	                	;
 216             	41.00       	0.285007    	                	;
 217             	41.16       	2.129982    	                	;
 218             	35.05       	0.885002    	                	;
 219             	33.92       	2.219991    	                	;
 220             	32.14       	1.379991    	                	;
 221             	34.17       	0.494992    	                	;
 222             	35.10       	0.090004    	                	;
 223             	31.55       	0.690002    	                	;
 224             	31.75       	1.080007    	                	;
 225             	32.07       	0.000000    	                	;
 226             	31.94       	0.000000    	                	;
 227             	31.66       	0.299992    	                	;
 228             	31.04       	0.120001    	                	;
 229             	31.05       	1.950013    	                	;
 230             	38.49       	1.605021    	                	;
 231             	35.68       	1.545004    	                	;
 232             	35.39       	0.045002    	                	;
 233             	34.89       	1.725012    	                	;
 234             	34.86       	2.144999    	                	;
 235             	34.99       	7.290001    	                	;
 236             	32.54       	7.064993    	                	;
 237             	34.41       	2.010010    	                	;
 238             	36.16       	2.805021    	                	;
 239             	35.30       	1.230002    	                	;
 240             	35.17       	1.409989    	                	;
 241             	32.92       	0.134995    	                	;
 242             	33.07       	1.920013    	                	;
 243             	31.91       	0.645000    	                	;
 244             	32.00       	0.764996    	                	;
 245             	32.05       	0.000000    	                	;
 246             	32.05       	0.014998    	                	;
 247             	30.70       	0.014998    	                	;
 248             	31.33       	0.000000    	                	;
 249             	36.30       	2.625021    	                	;
 250             	35.83       	1.545004    	                	;
 251             	36.95       	1.890018    	                	;
 252             	38.01       	2.039995    	                	;
 253             	36.65       	0.210002    	                	;
 254             	36.91       	0.000000    	                	;
 255             	36.77       	2.940028    	                	;
 256             	31.50       	3.315020    	                	;
 257             	38.65       	0.929990    	                	;
 258             	39.54       	0.000000    	                	;
 259             	39.58       	0.749991    	                	;
 260             	39.58       	0.165005    	                	;
 261             	40.55       	0.179995    	                	;
 262             	40.79       	0.329994    	                	;
 263             	40.95       	1.920013    	                	;
 264             	37.76       	0.285007    	                	;
 265             	35.96       	0.329994    	                	;
 266             	36.81       	1.784997    	                	;
 267             	36.21       	2.534998    	                	;
 268             	35.61       	0.645000    	                	;

[RESERVOIRS]
;ID              	Head        	Pattern         
 269             	72.0000     	                	;
 270             	73.8000     	                	;
 271             	73.0000     	                	;
 272             	74.5000     	                	;

[TANKS]
;ID              	Elevation   	InitLevel   	MinLevel    	MaxLevel    	Diameter    	MinVol      	VolCurve        	Overflow

[PIPES]
;ID              	Node1           	Node2           	Length      	Diameter    	Roughness   	MinorLoss   	Status
 1               	1               	16              	46.8400     	125.0000    	130.0000    	0.0000      	Open  	;
 2               	16              	2               	267.6800    	100.0000    	130.0000    	0.0000      	Open  	;
 3               	2               	3               	541.0700    	100.0000    	130.0000    	0.0000      	Open  	;
 4               	3               	4               	542.2900    	100.0000    	130.0000    	0.0000      	Open  	;
 5               	4               	5               	404.7200    	100.0000    	130.0000    	0.0000      	Open  	;
 6               	5               	206             	151.6700    	100.0000    	130.0000    	0.0000      	Open  	;
 7               	206             	6               	341.5700    	100.0000    	130.0000    	0.0000      	Open  	;
 8               	1               	140             	39.9100     	100.0000    	130.0000    	0.0000      	Open  	;
 9               	140             	143             	269.7300    	100.0000    	130.0000    	0.0000      	Open  	;
 10              	143             	145             	45.9200     	100.0000    	130.0000    	0.0000      	Open  	;
 11              	145             	146             	890.0900    	100.0000    	130.0000    	0.0000      	Open  	;
 12              	146             	148             	33.7900     	100.0000    	130.0000    	0.0000      	Open  	;
 13              	148             	63              	6.0300      	100.0000    	130.0000    	0.0000      	Open  	;
 14              	63              	149             	367.9200    	125.0000    	130.0000    	0.0000      	Open  	;
 15              	149             	150             	97.6600     	125.0000    	130.0000    	0.0000      	Open  	;
 16              	150             	60              	322.1900    	100.0000    	130.0000    	0.0000      	Open  	;
 17              	60              	61              	359.4800    	100.0000    	130.0000    	0.0000      	Open  	;
 18              	61              	218             	199.5900    	100.0000    	130.0000    	0.0000      	Open  	;
 19              	1               	141             	57.0600     	200.0000    	130.0000    	0.0000      	Open  	;
 20              	141             	142             	223.4100    	200.0000    	130.0000    	0.0000      	Open  	;
 21              	142             	144             	47.0300     	200.0000    	130.0000    	0.0000      	Open  	;
 22              	144             	257             	782.6700    	200.0000    	130.0000    	0.0000      	Open  	;
 23              	257             	53              	231.8700    	125.0000    	130.0000    	0.0000      	Open  	;
 24              	53              	251             	279.8400    	100.0000    	130.0000    	0.0000      	Open  	;
 25              	251             	57              	145.7000    	100.0000    	130.0000    	0.0000      	Open  	;
 26              	57              	58              	81.1000     	100.0000    	130.0000    	0.0000      	Open  	;
 27              	58              	59              	550.1700    	100.0000    	130.0000    	0.0000      	Open  	;
 28              	53              	230             	155.6300    	100.0000    	130.0000    	0.0000      	Open  	;
 29              	230             	252             	357.8100    	100.0000    	130.0000    	0.0000      	Open  	;
 30              	252             	3               	267.3200    	100.0000    	130.0000    	0.0000      	Open  	;
 31              	3               	13              	612.5000    	100.0000    	130.0000    	0.0000      	Open  	;
 32              	13              	12              	160.5000    	100.0000    	130.0000    	0.0000      	Open  	;
 33              	12              	11              	531.7100    	100.0000    	130.0000    	0.0000      	Open  	;
 34              	1               	258             	41.9100     	200.0000    	130.0000    	0.0000      	Open  	;
 35              	258             	259             	95.2200     	200.0000    	130.0000    	0.0000      	Open  	;
 36              	259             	260             	25.1300     	200.0000    	130.0000    	0.0000      	Open  	;
 37              	260             	215             	158.1200    	200.0000    	130.0000    	0.0000      	Open  	;
 38              	215             	261             	95.4000     	200.0000    	130.0000    	0.0000      	Open  	;
 39              	261             	77              	52.9200     	200.0000    	130.0000    	0.0000      	Open  	;
 40              	77              	262             	44.9200     	200.0000    	130.0000    	0.0000      	Open  	;
 41              	262             	216             	127.0500    	200.0000    	130.0000    	0.0000      	Open  	;
 42              	216             	263             	56.6800     	200.0000    	130.0000    	0.0000      	Open  	;
 43              	263             	76              	181.2900    	200.0000    	130.0000    	0.0000      	Open  	;
 44              	76              	217             	220.9000    	200.0000    	130.0000    	0.0000      	Open  	;
 45              	217             	75              	67.6500     	200.0000    	130.0000    	0.0000      	Open  	;
 46              	75              	74              	36.0600     	200.0000    	130.0000    	0.0000      	Open  	;
 47              	74              	73              	242.2900    	150.0000    	130.0000    	0.0000      	Open  	;
 48              	73              	72              	70.4500     	150.0000    	130.0000    	0.0000      	Open  	;
 49              	72              	71              	112.8300    	150.0000    	130.0000    	0.0000      	Open  	;
 50              	71              	70              	105.7200    	150.0000    	130.0000    	0.0000      	Open  	;
 51              	70              	69              	199.4200    	150.0000    	130.0000    	0.0000      	Open  	;
 52              	69              	68              	180.6400    	125.0000    	130.0000    	0.0000      	Open  	;
 53              	68              	78              	288.7600    	125.0000    	130.0000    	0.0000      	Open  	;
 54              	78              	154             	69.2600     	100.0000    	130.0000    	0.0000      	Open  	;
 55              	154             	79              	718.4500    	100.0000    	130.0000    	0.0000      	Open  	;
 56              	79              	155             	390.7800    	100.0000    	130.0000    	0.0000      	Open  	;
 57              	155             	156             	24.0000     	125.0000    	130.0000    	0.0000      	Open  	;
 58              	156             	95              	504.5200    	125.0000    	130.0000    	0.0000      	Open  	;
 59              	95              	96              	41.7800     	150.0000    	130.0000    	0.0000      	Open  	;
 60              	96              	97              	367.9300    	150.0000    	130.0000    	0.0000      	Open  	;
 61              	97              	157             	101.8600    	150.0000    	130.0000    	0.0000      	Open  	;
 62              	157             	98              	125.3600    	150.0000    	130.0000    	0.0000      	Open  	;
 63              	98              	158             	699.7600    	150.0000    	130.0000    	0.0000      	Open  	;
 64              	158             	136             	448.0500    	200.0000    	130.0000    	0.0000      	Open  	;
 65              	136             	159             	114.2900    	200.0000    	130.0000    	0.0000      	Open  	;
 66              	159             	160             	197.3000    	200.0000    	130.0000    	0.0000      	Open  	;
 67              	160             	137             	235.9800    	200.0000    	130.0000    	0.0000      	Open  	;
 68              	137             	135             	224.8700    	200.0000    	130.0000    	0.0000      	Open  	;
 69              	135             	222             	176.7300    	125.0000    	130.0000    	0.0000      	Open  	;
 70              	222             	161             	76.4400     	100.0000    	130.0000    	0.0000      	Open  	;
 71              	161             	131             	356.9400    	100.0000    	130.0000    	0.0000      	Open  	;
 72              	131             	242             	443.7900    	100.0000    	130.0000    	0.0000      	Open  	;
 73              	242             	130             	20.5500     	100.0000    	130.0000    	0.0000      	Open  	;
 74              	130             	241             	113.3300    	100.0000    	130.0000    	0.0000      	Open  	;
 75              	241             	168             	25.9600     	100.0000    	130.0000    	0.0000      	Open  	;
 76              	168             	167             	145.0400    	100.0000    	130.0000    	0.0000      	Open  	;
 77              	167             	166             	55.2400     	100.0000    	130.0000    	0.0000      	Open  	;
 78              	166             	129             	208.2200    	100.0000    	130.0000    	0.0000      	Open  	;
 79              	129             	125             	190.4300    	100.0000    	130.0000    	0.0000      	Open  	;
 80              	125             	246             	70.9800     	100.0000    	130.0000    	0.0000      	Open  	;
 81              	246             	245             	52.0400     	100.0000    	130.0000    	0.0000      	Open  	;
 82              	245             	124             	34.0300     	100.0000    	130.0000    	0.0000      	Open  	;
 83              	124             	225             	79.4700     	100.0000    	130.0000    	0.0000      	Open  	;
 84              	225             	226             	277.9900    	100.0000    	130.0000    	0.0000      	Open  	;
 85              	176             	227             	86.0300     	100.0000    	130.0000    	0.0000      	Open  	;
 86              	227             	177             	296.2500    	100.0000    	130.0000    	0.0000      	Open  	;
 87              	177             	180             	111.3000    	100.0000    	130.0000    	0.0000      	Open  	;
 88              	180             	178             	123.3700    	100.0000    	130.0000    	0.0000      	Open  	;
 89              	178             	179             	196.2700    	100.0000    	130.0000    	0.0000      	Open  	;
 90              	179             	228             	198.4600    	100.0000    	130.0000    	0.0000      	Open  	;
 91              	228             	229             	75.6200     	100.0000    	130.0000    	0.0000      	Open  	;
 92              	229             	121             	110.1400    	100.0000    	130.0000    	0.0000      	Open  	;
 93              	121             	118             	423.5700    	100.0000    	130.0000    	0.0000      	Open  	;
 94              	118             	117             	116.5700    	100.0000    	130.0000    	0.0000      	Open  	;
 95              	117             	181             	100.6100    	100.0000    	130.0000    	0.0000      	Open  	;
 96              	181             	182             	164.8400    	100.0000    	130.0000    	0.0000      	Open  	;
 97              	182             	116             	47.4900     	100.0000    	130.0000    	0.0000      	Open  	;
 98              	116             	247             	87.5400     	100.0000    	130.0000    	0.0000      	Open  	;
 99              	49              	184             	189.2700    	150.0000    	130.0000    	0.0000      	Open  	;
 100             	184             	41              	244.8000    	150.0000    	130.0000    	0.0000      	Open  	;
 101             	41              	248             	293.4700    	150.0000    	130.0000    	0.0000      	Open  	;
 102             	248             	40              	308.6400    	150.0000    	130.0000    	0.0000      	Open  	;
 103             	40              	39              	566.5700    	150.0000    	130.0000    	0.0000      	Open  	;
 104             	226             	176             	95.1400     	100.0000    	130.0000    	0.0000      	Open  	;
 105             	247             	183             	248.5500    	100.0000    	130.0000    	0.0000      	Open  	;
 106             	183             	49              	187.7800    	100.0000    	130.0000    	0.0000      	Open  	;
 107             	39              	38              	357.6700    	125.0000    	130.0000    	0.0000      	Open  	;