[TITLE]
;;Project Title/Notes

[OPTIONS]
;;Option             Value
FLOW_UNITS           LPS
INFILTRATION         HORTON
FLOW_ROUTING         DYNWAVE
LINK_OFFSETS         DEPTH
MIN_SLOPE            0
ALLOW_PONDING        NO
SKIP_STEADY_STATE    NO

START_DATE           05/18/2022
START_TIME           00:00:00
REPORT_START_DATE    05/18/2022
REPORT_START_TIME    00:00:00
END_DATE             05/18/2022
END_TIME             23:59:00
SWEEP_START          01/01
SWEEP_END            12/31
DRY_DAYS             0
REPORT_STEP          00:00:10
WET_STEP             00:01:00
DRY_STEP             00:01:00
ROUTING_STEP         2.5
RULE_STEP            00:00:00

INERTIAL_DAMPING     PARTIAL
NORMAL_FLOW_LIMITED  BOTH
FORCE_MAIN_EQUATION  H-W
VARIABLE_STEP        0.75
LENGTHENING_STEP     0
MIN_SURFAREA         0.00000001
MAX_TRIALS           20
HEAD_TOLERANCE       0.000005
SYS_FLOW_TOL         5
LAT_FLOW_TOL         5
MINIMUM_STEP         0.1
THREADS              1

[FILES]
;;Interfacing Files


[EVAPORATION]
;;Data Source    Parameters
;;-------------- ----------------
CONSTANT         0.0
DRY_ONLY         NO

[JUNCTIONS]
;;Name           Elevation  MaxDepth   InitDepth  SurDepth   Aponded
;;-------------- ---------- ---------- ---------- ---------- ----------
         1  39.490000          0          0        100          0
         2  39.620000          0          0        100          0
         3  38.700000          0          0        100          0
         4  37.250000          0          0        100          0
         5  36.270000          0          0        100          0
         6  35.950000          0          0        100          0
         7  35.950000          0          0        100          0
         8  36.090000          0          0        100          0
         9  36.180000          0          0        100          0
        10  37.000000          0          0        100          0
        11  36.500000          0          0        100          0
        12  37.390000          0          0        100          0
        13  38.070000          0          0        100          0
        14  37.020000          0          0        100          0
        15  41.260000          0          0        100          0
        16  39.350000          0          0        100          0
        17  39.530000          0          0        100          0
        18  36.590000          0          0        100          0
        19  36.760000          0          0        100          0
        20  37.720000          0          0        100          0
        21  37.310000          0          0        100          0
        22  37.620000          0          0        100          0
        23  36.990000          0          0        100          0
        24  35.200000          0          0        100          0
        25  35.110000          0          0        100          0
        26  34.650000          0          0        100          0
        27  34.330000          0          0        100          0
        28  36.150000          0          0        100          0
        29  36.300000          0          0        100          0
        30  36.100000          0          0        100          0
        31  36.140000          0          0        100          0
        32  35.800000          0          0        100          0
        33  33.260000          0          0        100          0
        34  33.340000          0          0        100          0
        35  33.510000          0          0        100          0
        36  32.700000          0          0        100          0
        37  32.650000          0          0        100          0
        38  32.560000          0          0        100          0
        39  33.560000          0          0        100          0
        40  31.590000          0          0        100          0
        41  31.380000          0          0        100          0
        42  32.670000          0          0        100          0
        43  33.500000          0          0        100          0
        44  33.570000          0          0        100          0
        45  33.770000          0          0        100          0
        46  34.140000          0          0        100          0
        47  33.680000          0          0        100          0
        48  33.710000          0          0        100          0
        49  31.680000          0          0        100          0
        50  33.340000          0          0        100          0
        51  32.830000          0          0        100          0
        53  39.280000          0          0        100          0
        54  37.120000          0          0        100          0
        55  36.480000          0          0        100          0
        56  36.420000          0          0        100          0
        57  36.130000          0          0        100          0
        58  36.050000          0          0        100          0
        59  36.770000          0          0        100          0
        60  35.480000          0          0        100          0
        61  35.050000          0          0        100          0
        62  35.100000          0          0        100          0
        63  37.950000          0          0        100          0
        64  38.440000          0          0        100          0
        65  37.810000          0          0        100          0
        66  38.220000          0          0        100          0
        67  38.730000          0          0        100          0
        68  38.950000          0          0        100          0
        69  39.700000          0          0        100          0
        70  40.590000          0          0        100          0
        71  40.810000          0          0        100          0
        72  41.060000          0          0        100          0
        73  41.450000          0          0        100          0
        74  41.830000          0          0        100          0
        75  41.440000          0          0        100          0
        76  41.090000          0          0        100          0
        77  40.740000          0          0        100          0
        78  38.600000          0          0        100          0
        79  36.910000          0          0        100          0
        80  36.750000          0          0        100          0
        81  36.810000          0          0        100          0
        82  37.050000          0          0        100          0
        83  35.880000          0          0        100          0
        84  36.450000          0          0        100          0
        85  36.160000          0          0        100          0
        86  34.990000          0          0        100          0
        87  35.610000          0          0        100          0
        88  34.890000          0          0        100          0
        89  35.590000          0          0        100          0
        90  35.700000          0          0        100          0
        91  35.200000          0          0        100          0
        92  35.640000          0          0        100          0
        93  35.930000          0          0        100          0
        94  37.640000          0          0        100          0
        95  37.170000          0          0        100          0
        96  37.100000          0          0        100          0
        97  36.970000          0          0        100          0
        98  37.000000          0          0        100          0
        99  36.740000          0          0        100          0
       100  34.780000          0          0        100          0
       101  34.260000          0          0        100          0
       102  33.660000          0          0        100          0
       103  33.780000          0          0        100          0
       104  33.750000          0          0        100          0
       105  33.380000          0          0        100          0
       106  34.850000          0          0        100          0
       107  34.270000          0          0        100          0
       108  34.300000          0          0        100          0
       109  33.950000          0          0        100          0
       110  33.920000          0          0        100          0
       111  32.320000          0          0        100          0
       112  34.760000          0          0        100          0
       113  34.210000          0          0        100          0
       114  34.920000          0          0        100          0
       115  32.960000          0          0        100          0
       116  30.690000          0          0        100          0
       117  30.590000          0          0        100          0
       118  30.730000          0          0        100          0
       119  30.700000          0          0        100          0
       120  31.020000          0          0        100          0
       121  31.030000          0          0        100          0
       122  31.750000          0          0        100          0
       123  32.000000          0          0        100          0
       124  32.050000          0          0        100          0
       125  32.100000          0          0        100          0
       126  33.760000          0          0        100          0
       127  32.270000          0          0        100          0
       128  31.860000          0          0        100          0
       129  32.420000          0          0        100          0
       130  33.000000          0          0        100          0
       131  33.630000          0          0        100          0
       132  36.370000          0          0        100          0
       133  35.690000          0          0        100          0
       134  35.520000          0          0        100          0
       135  35.560000          0          0        100          0
       136  35.920000          0          0        100          0
       137  35.370000          0          0        100          0
       138  35.060000          0          0        100          0
       139  34.120000          0          0        100          0
       140  39.350000          0          0        100          0
       141  39.100000          0          0        100          0
       142  39.840000          0          0        100          0
       143  39.840000          0          0        100          0
       144  39.450000          0          0        100          0
       145  39.700000          0          0        100          0
       146  37.950000          0          0        100          0
       147  37.610000          0          0        100          0
       148  37.950000          0          0        100          0
       149  35.690000          0          0        100          0
       150  35.320000          0          0        100          0
       151  35.810000          0          0        100          0
       152  35.810000          0          0        100          0
       153  36.020000          0          0        100          0
       154  38.250000          0          0        100          0
       155  37.500000          0          0        100          0
       156  37.540000          0          0        100          0
       157  37.080000          0          0        100          0
       158  36.760000          0          0        100          0
       159  35.880000          0          0        100          0
       160  35.770000          0          0        100          0
       161  34.700000          0          0        100          0
       162  35.370000          0          0        100          0
       163  34.990000          0          0        100          0
       164  35.930000          0          0        100          0
       165  36.270000          0          0        100          0
       166  32.670000          0          0        100          0
       167  32.750000          0          0        100          0
       168  32.880000          0          0        100          0
       169  34.090000          0          0        100          0
       170  36.090000          0          0        100          0
       171  36.050000          0          0        100          0
       172  36.040000          0          0        100          0
       173  36.020000          0          0        100          0
       174  31.760000          0          0        100          0
       175  31.910000          0          0        100          0
       176  31.800000          0          0        100          0
       177  31.480000          0          0        100          0
       178  31.120000          0          0        100          0
       179  31.100000          0          0        100          0
       180  31.190000          0          0        100          0
       181  30.390000          0          0        100          0
       182  30.550000          0          0        100          0
       183  31.130000          0          0        100          0
       184  31.810000          0          0        100          0
       185  32.340000          0          0        100          0
       186  32.830000          0          0        100          0
       187  33.690000          0          0        100          0
       188  33.170000          0          0        100          0
       189  33.230000          0          0        100          0
       190  33.340000          0          0        100          0
       191  33.770000          0          0        100          0
       192  33.770000          0          0        100          0
       193  32.200000          0          0        100          0
       194  34.410000          0          0        100          0
       195  33.390000          0          0        100          0
       196  34.340000          0          0        100          0
       197  35.030000          0          0        100          0
       198  34.440000          0          0        100          0
       199  34.530000          0          0        100          0
       200  34.940000          0          0        100          0
       201  34.700000          0          0        100          0
       202  36.700000          0          0        100          0
       203  36.200000          0          0        100          0
       204  35.030000          0          0        100          0
       205  36.770000          0          0        100          0
       206  36.200000          0          0        100          0
       207  37.880000          0          0        100          0
       208  38.030000          0          0        100          0
       210  37.240000          0          0        100          0
       211  36.660000          0          0        100          0
       212  36.490000          0          0        100          0
       213  37.300000          0          0        100          0
       214  40.300000          0          0        100          0
       215  39.850000          0          0        100          0
       216  41.000000          0          0        100          0
       217  41.160000          0          0        100          0
       218  35.050000          0          0        100          0
       219  33.920000          0          0        100          0
       220  32.140000          0          0        100          0
       221  34.170000          0          0        100          0
       222  35.100000          0          0        100          0
       223  31.550000          0          0        100          0
       224  31.750000          0          0        100          0
       225  32.070000          0          0        100          0
       226  31.940000          0          0        100          0
       227  31.660000          0          0        100          0
       228  31.040000          0          0        100          0
       229  31.050000          0          0        100          0
       230  38.490000          0          0        100          0
       231  35.680000          0          0        100          0
       232  35.390000          0          0        100          0
       233  34.890000          0          0        100          0
       234  34.860000          0          0        100          0
       235  34.990000          0          0        100          0
       236  32.540000          0          0        100          0
       237  34.410000          0          0        100          0
       238  36.160000          0          0        100          0
       239  35.300000          0          0        100          0
       240  35.170000          0          0        100          0
       241  32.920000          0          0        100          0
       242  33.070000          0          0        100          0
       243  31.910000          0          0        100          0
       244  32.000000          0          0        100          0
       245  32.050000          0          0        100          0
       246  32.050000          0          0        100          0
       247  30.700000          0          0        100          0
       248  31.330000          0          0        100          0
       249  36.300000          0          0        100          0
       250  35.830000          0          0        100          0
       251  36.950000          0          0        100          0
       252  38.010000          0          0        100          0
       253  36.650000          0          0        100          0
       254  36.910000          0          0        100          0
       255  36.770000          0          0        100          0
       256  31.500000          0          0        100          0
       257  38.650000          0          0        100          0
       258  39.540000          0          0        100          0
       259  39.580000          0          0        100          0
       260  39.580000          0          0        100          0
       261  40.550000          0          0        100          0
       262  40.790000          0          0        100          0
       263  40.950000          0          0        100          0
       264  37.760000          0          0        100          0
       265  35.960000          0          0        100          0
       266  36.810000          0          0        100          0
       267  36.210000          0          0        100          0
       268  35.610000          0          0        100          0
    16-1-2  39.491250          0          0        100          0
     2-1-3  39.313333          0          0        100          0
     2-2-3  39.006667          0          0        100          0
     3-1-4  38.225000          0          0        100          0
     3-2-4  37.750000          0          0        100          0
     4-1-5  36.772500          0          0        100          0
   206-1-6  36.081250          0          0        100          0
 140-1-143  39.595000          0          0        100          0
 145-1-146  39.262500          0          0        100          0
 145-2-146  38.825000          0          0        100          0
 145-3-146  38.387500          0          0        100          0
  63-1-149  36.826250          0          0        100          0
  150-1-60  35.406250          0          0        100          0
   60-1-61  35.265000          0          0        100          0
 144-1-257  39.250000          0          0        100          0
 144-2-257  39.050000          0          0        100          0
 144-3-257  38.850000          0          0        100          0
  53-1-251  38.121250          0          0        100          0
   58-1-59  36.290000          0          0        100          0
   58-2-59  36.530000          0          0        100          0
 230-1-252  38.250000          0          0        100          0
   252-1-3  38.355000          0          0        100          0
    3-1-13  38.490000          0          0        100          0
    3-2-13  38.280000          0          0        100          0
   12-1-11  37.110000          0          0        100          0
   12-2-11  36.830000          0          0        100          0
   68-1-78  38.775000          0          0        100          0
  154-1-79  37.803333          0          0        100          0
  154-2-79  37.356667          0          0        100          0
  79-1-155  37.211250          0          0        100          0
  156-1-95  37.420833          0          0        100          0
  156-2-95  37.301667          0          0        100          0
   96-1-97  37.035000          0          0        100          0
  98-1-158  36.928333          0          0        100          0
  98-2-158  36.856667          0          0        100          0
 158-1-136  36.340000          0          0        100          0
 161-1-131  34.165000          0          0        100          0
 131-1-242  33.350000          0          0        100          0
 225-1-226  32.005000          0          0        100          0
 227-1-177  31.570000          0          0        100          0
 121-1-118  30.880000          0          0        100          0
  41-1-248  31.355000          0          0        100          0
  248-1-40  31.460000          0          0        100          0
   40-1-39  32.246667          0          0        100          0
   40-2-39  32.903333          0          0        100          0
   39-1-38  33.066250          0          0        100          0
   38-1-37  32.598333          0          0        100          0
   38-2-37  32.624167          0          0        100          0
  37-1-193  32.431250          0          0        100          0
  36-1-194  33.274167          0          0        100          0
  36-2-194  33.848333          0          0        100          0
  26-1-195  34.230000          0          0        100          0
  26-2-195  33.810000          0          0        100          0
    6-1-28  36.016667          0          0        100          0
    6-2-28  36.083333          0          0        100          0
  28-1-249  36.208333          0          0        100          0
  28-2-249  36.254167          0          0        100          0
     7-1-8  36.020000          0          0        100          0
    8-1-23  36.540000          0          0        100          0
   22-1-21  37.471250          0          0        100          0
  253-1-18  36.620000          0          0        100          0
   11-1-10  36.683333          0          0        100          0
   11-2-10  36.841667          0          0        100          0
    10-1-4  37.125000          0          0        100          0
  59-1-203  36.485000          0          0        100          0
 203-1-202  36.456250          0          0        100          0
  265-1-32  35.880000          0          0        100          0
   32-1-33  34.961667          0          0        100          0
   32-2-33  34.123333          0          0        100          0
   33-1-34  33.300000          0          0        100          0
  205-1-88  35.842500          0          0        100          0
   88-1-89  35.131667          0          0        100          0
   88-2-89  35.373333          0          0        100          0
   90-1-91  35.475000          0          0        100          0
  91-1-234  35.030000          0          0        100          0
 234-1-109  34.417500          0          0        100          0
 138-1-235  35.037500          0          0        100          0
 235-1-110  34.467500          0          0        100          0
 102-1-106  34.255000          0          0        100          0
  48-1-108  34.005000          0          0        100          0
 110-1-111  33.120000          0          0        100          0
  59-1-204  35.906250          0          0        100          0
 197-1-101  34.657500          0          0        100          0
 139-1-192  33.970000          0          0        100          0
  112-1-92  35.078333          0          0        100          0
  112-2-92  35.371667          0          0        100          0
   63-1-64  38.195000          0          0        100          0
   65-1-80  37.608000          0          0        100          0
   65-2-80  37.393500          0          0        100          0
   65-3-80  37.179000          0          0        100          0
   65-4-80  36.964500          0          0        100          0
  85-1-173  36.090000          0          0        100          0
  172-1-92  35.846250          0          0        100          0
   89-1-92  35.627500          0          0        100          0
 238-1-133  35.925000          0          0        100          0
 162-1-163  35.180000          0          0        100          0
 114-1-113  34.577500          0          0        100          0
 113-1-115  33.603750          0          0        100          0
 115-1-236  32.750000          0          0        100          0
 220-1-122  31.945000          0          0        100          0
 122-1-123  31.875000          0          0        100          0
  214-1-15  40.780000          0          0        100          0
  15-1-213  39.280000          0          0        100          0
  213-1-14  37.160000          0          0        100          0
   54-1-55  36.800000          0          0        100          0
   55-1-56  36.450000          0          0        100          0
   56-1-57  36.281250          0          0        100          0
    10-1-9  36.602500          0          0        100          0
     9-1-8  36.154167          0          0        100          0
     9-2-8  36.128333          0          0        100          0
     9-1-5  36.225000          0          0        100          0
   58-1-60  35.765000          0          0        100          0
   62-1-87  35.361250          0          0        100          0
  87-1-171  35.830000          0          0        100          0
   85-1-87  35.897500          0          0        100          0
   85-1-94  36.661667          0          0        100          0
   85-2-94  37.150833          0          0        100          0
  99-1-255  36.755000          0          0        100          0
 255-1-132  36.570000          0          0        100          0
 132-1-133  36.030000          0          0        100          0
   80-1-83  36.315000          0          0        100          0
   83-1-62  35.490000          0          0        100          0
 132-1-165  36.320000          0          0        100          0
 134-1-126  35.098750          0          0        100          0
 134-2-126  34.652500          0          0        100          0
 134-3-126  34.206250          0          0        100          0
 126-1-127  33.015000          0          0        100          0
 113-1-169  34.170000          0          0        100          0
 113-2-169  34.130000          0          0        100          0
 128-1-129  32.140000          0          0        100          0
 106-1-237  34.655000          0          0        100          0
 237-1-107  34.340000          0          0        100          0
 109-1-188  33.560000          0          0        100          0
 269-1-256  32.000000          0          0        100          0
   43-1-42  33.085000          0          0        100          0
   42-1-41  32.037500          0          0        100          0
 185-1-186  32.585000          0          0        100          0
   46-1-50  33.740000          0          0        100          0
   50-1-51  33.147500          0          0        100          0
   271-1-1  40.240000          0          0        100          0
   271-2-1  39.990000          0          0        100          0
   271-3-1  39.740000          0          0        100          0


[OUTFALLS]
;;Name           Elevation  Type       Stage Data       Gated    Route To
;;-------------- ---------- ---------- ---------------- -------- ----------------
    Outfall1      39.49       FREE                    NO
    Outfall2      39.62       FREE                    NO
    Outfall3      38.70       FREE                    NO
    Outfall4      37.25       FREE                    NO
    Outfall5      36.27       FREE                    NO
    Outfall6      35.95       FREE                    NO
    Outfall7      35.95       FREE                    NO
    Outfall8      36.09       FREE                    NO
    Outfall9      36.18       FREE                    NO
   Outfall10      37.00       FREE                    NO
   Outfall11      36.50       FREE                    NO
   Outfall12      37.39       FREE                    NO
   Outfall13      38.07       FREE                    NO
   Outfall14      37.02       FREE                    NO
   Outfall15      41.26       FREE                    NO
   Outfall16      39.35       FREE                    NO
   Outfall17      39.53       FREE                    NO
   Outfall18      36.59       FREE                    NO
   Outfall20      37.72       FREE                    NO
   Outfall21      37.31       FREE                    NO
   Outfall22      37.62       FREE                    NO
   Outfall23      36.99       FREE                    NO
   Outfall24      35.20       FREE                    NO
   Outfall25      35.11       FREE                    NO
   Outfall26      34.65       FREE                    NO
   Outfall27      34.33       FREE                    NO
   Outfall28      36.15       FREE                    NO
   Outfall29      36.30       FREE                    NO